23
gdb 115579	3.00286	0.97227	0.89434	0.9555	81.61	-0.2603	0.0704	0.3307	1415.5492	0.204049	-425.405879	-425.395334	-425.394389	-425.44118	39.082	
C	-0.4836029677	 1.6289632793	 0.1024179545	-0.464709
C	-0.0853034566	 0.1548175599	 0.072696563	 0.321674
C	-1.2645722507	-0.7013945064	-0.3886299943	-0.117106
O	-1.6267624548	-0.3067870896	-1.7050532453	-0.426733
C	 1.2133930983	-0.21076978	-0.7120511481	-0.251889
C	 1.6438121009	-1.1391278738	 0.4551972278	-0.222184
C	 0.5526557945	-0.4919368693	 1.3549048639	-0.017721
C	 1.1093482803	 0.4712382259	 2.3893710704	-0.10621
O	 1.7718015253	-0.3096140135	 3.3766523832	-0.423262
H	 0.3515697475	 2.2712430257	 0.3964803261	 0.104929
H	-0.8181313563	 1.9410895706	-0.8906538592	 0.134214
H	-1.310060935	 1.8080059201	 0.8009740541	 0.105317
H	-0.9835103909	-1.7659582931	-0.3626725616	 0.082907
H	-2.1050766217	-0.5663191443	 0.3130165569	 0.08109
H	-2.3587154341	-0.8581088938	-1.9952239982	 0.28718
H	 1.062682427	-0.6640279688	-1.6942095454	 0.104292
H	 1.8775025159	 0.6498725409	-0.8318008744	 0.091062
H	 1.4590223151	-2.1970274369	 0.2539912036	 0.097288
H	 2.6684527893	-1.0393927839	 0.8198222095	 0.102726
H	-0.1004945744	-1.1987472189	 1.8795733503	 0.065226
H	 1.809483013	 1.1785350062	 1.9162970973	 0.082586
H	 0.2949486398	 1.0648985211	 2.8340807994	 0.084747
H	 2.1712749253	 0.2894424826	 4.0139290965	 0.284579
