17
gdb 18838	3.92792	2.18672	1.81302	1.9689	65.84	-0.2317	0.0648	0.2964	768.2656	0.144844	-363.825201	-363.818811	-363.817867	-363.855463	25.799	
O	-0.0274882318	 1.4383521696	-0.0820145907	-0.436139
C	 0.0191108469	 0.0268739635	 0.0199420399	 0.137864
C	 0.6152715326	-0.5230027099	 1.3462031978	-0.292481
C	-0.3223915816	-1.670421755	 1.6843305627	-0.015644
C	-1.7672328711	-1.4027730465	 1.9003861129	-0.033324
C	-2.202518983	-0.0811228604	 1.2824027485	-0.248667
C	-1.4005087337	-0.5319269174	 0.0352808259	-0.00237
N	-1.2774824141	-1.9524906167	 0.5748445664	-0.162735
H	 0.8743540467	 1.767073912	-0.1415944352	 0.287024
H	 0.5604774561	-0.4071384304	-0.8342628598	 0.075274
H	 1.6449797103	-0.8715166175	 1.2256683065	 0.10123
H	 0.6137566926	 0.2628485761	 2.1089227108	 0.110423
H	 0.0804589278	-2.5665207758	 2.1458272616	 0.089897
H	-2.3622120326	-2.0122116599	 2.5747676507	 0.088127
H	-3.2764382201	-0.0645893013	 1.0876051876	 0.110056
H	-1.9102556398	 0.8539219085	 1.7676819087	 0.110867
H	-1.9097744454	-0.4827544587	-0.9262553943	 0.0806
