16
gdb 123919	3.53303	1.637	1.15963	2.0834	70.52	-0.1999	0.0091	0.209	1001.9952	0.129524	-430.243715	-430.236633	-430.235689	-430.275147	27.723	
C	-0.0111813353	 1.4330662362	 0.053121102	-0.173928
C	 1.4468794983	 1.9498595254	 0.0082276607	-0.173938
N	 2.2718315391	 1.4536026218	 1.1131620028	-0.397147
C	 1.976704588	 0.1300332618	 1.4345640455	 0.318637
N	 2.6891050979	-0.6800106915	 2.2153211565	-0.307505
N	 2.0321650585	-1.8358418428	 2.1058266338	-0.097774
N	 0.9502627465	-1.8513494449	 1.3255831635	-0.307535
C	 0.8923680373	-0.5941961695	 0.890296224	 0.318695
N	-0.106686812	-0.028556239	 0.1002790789	-0.397163
H	-0.5034142686	 1.8431384038	 0.9450613851	 0.112909
H	-0.5646723649	 1.7933750885	-0.8181194933	 0.109744
H	 1.9046960668	 1.6321695857	-0.9380715591	 0.112918
H	 1.4588964089	 3.0429441105	 0.024229963	 0.109743
H	 2.3286627628	 2.0755833728	 1.9076392127	 0.242085
H	 2.3393129503	-2.6604474001	 2.5911321495	 0.288167
H	-0.2307428535	-0.4710458387	-0.7997691355	 0.242093
