16
gdb 45321	3.28226	1.51249	1.21583	2.3738	69.2	-0.242	-0.0418	0.2001	1004.4905	0.125588	-437.89396	-437.886668	-437.885724	-437.926323	27.437	
O	 0.084082132	 0.4974297213	-1.3509790977	-0.279501
C	 0.0555839286	 1.2905302744	-0.4595675428	 0.398731
C	-1.003277666	 1.7539705266	 0.5479317679	-0.367091
C	-0.140707099	 3.039224248	 0.7751644611	-0.054996
C	 0.1576432939	 3.4738178526	 2.206220963	-0.186304
N	 1.0574019324	 2.5800195766	 2.9257239959	-0.259083
C	 1.8611975893	 1.8733066091	 2.2568959642	 0.130605
O	 2.0232290005	 1.7635913919	 0.9109709722	-0.238963
C	 1.0593755932	 2.3711446384	 0.0428570518	-0.002812
H	-2.0214421841	 1.8680563468	 0.1702642187	 0.134675
H	-1.0234557324	 1.1058176239	 1.4321590643	 0.148669
H	-0.5250277887	 3.8738242645	 0.1834359004	 0.094467
H	 0.6107610208	 4.4745882055	 2.1984209622	 0.121504
H	-0.7700837671	 3.5644920662	 2.7820422992	 0.118255
H	 2.5791506486	 1.2223172626	 2.752027765	 0.132501
H	 1.607734008	 2.9437331115	-0.7083674352	 0.109343
