19
gdb 30345	2.87736	1.55751	1.0601	1.1976	81.14	-0.2141	0.0205	0.2346	1136.1628	0.16197	-385.931812	-385.924253	-385.923309	-385.963724	30.	
C	-0.1083730042	 1.577439409	-0.0222534403	-0.395961
C	 0.0247455561	 0.0532026699	 0.0185945164	-0.118058
C	 0.8091356122	-0.543006393	-1.1943925813	-0.208277
C	 1.4746591933	-1.8635408818	-0.7035252287	-0.361153
C	 1.6356725929	-1.5986620046	 0.7668293313	 0.221234
C	 2.2918468241	-2.0253509544	 1.8724727155	-0.170704
O	 1.9230817248	-1.2633410454	 2.9473489674	-0.155487
C	 1.013863538	-0.3411061193	 2.5069393632	-0.182818
C	 0.8062421247	-0.5059111049	 1.1778335755	 0.253086
H	 0.8776676242	 2.0536637353	-0.0101293358	 0.118291
H	-0.6317486975	 1.9010755969	-0.9282086384	 0.112222
H	-0.6725944721	 1.9507958865	 0.8385350992	 0.114365
H	-0.9865140287	-0.3798028082	 0.0279586169	 0.085264
H	 0.1724650421	-0.6890339391	-2.0716545211	 0.095318
H	 1.5954558024	 0.1668681035	-1.4776877718	 0.104584
H	 0.8115739093	-2.7211343368	-0.8768495522	 0.112161
H	 2.4107856094	-2.0761419974	-1.228101229	 0.110675
H	 3.0168780502	-2.7946638785	 2.0805291572	 0.13318
H	 0.6425912889	 0.3343555123	 3.2597202159	 0.132079
