20
gdb 119538	3.02319	1.06796	0.87448	2.0089	80.6	-0.2427	-0.0199	0.2228	1391.049	0.170009	-403.131164	-403.122045	-403.121101	-403.165693	33.643	
C	 0.0610534395	 1.6301232872	 0.0213475143	-0.384991
C	 0.1604721237	 0.1038883324	 0.0699492788	-0.16722
C	 0.5654730316	-0.5056417086	-1.2829051852	-0.31045
C	 0.6277603745	-2.0041560554	-1.2257887736	 0.220373
C	 1.8425278715	-2.7948651286	-0.8545823509	-0.275655
N	 1.3573606091	-2.9272960782	-2.2237020414	-0.162037
C	 0.2324837041	-3.925651349	-2.1294664406	-0.290269
C	-0.5468619568	-2.9388392418	-1.2374006017	 0.364063
O	-1.695309676	-2.8228499408	-0.9141472245	-0.311686
H	 1.0192617866	 2.0826090535	-0.2577559588	 0.113599
H	-0.6843481906	 1.9544376482	-0.7129783641	 0.11945
H	-0.2301947585	 2.0385933593	 0.9936915517	 0.115612
H	 0.8885987483	-0.1975591001	 0.8336272942	 0.096473
H	-0.8014544378	-0.3243802262	 0.3734278886	 0.127331
H	-0.1590811476	-0.2044244518	-2.0498544962	 0.112087
H	 1.5411867578	-0.1177121416	-1.5997032726	 0.109269
H	 2.7640461427	-2.2257656783	-0.7668484602	 0.132718
H	 1.7682547152	-3.6445944316	-0.1783507008	 0.120217
H	-0.2583664226	-4.0629004138	-3.0965443031	 0.143233
H	 0.5231574355	-4.8978536348	-1.7209499841	 0.127883
