19
gdb 94774	3.71347	1.15955	1.02556	4.4369	77.17	-0.2423	-0.017	0.2253	1209.9097	0.158704	-423.027954	-423.019532	-423.018588	-423.060934	32.038	
C	 0.0341878027	 1.5848263486	-0.0356374884	-0.402638
C	 0.0394152052	 0.0579840466	 0.0547865559	-0.00268
C	 0.7586072779	-0.6243011763	-1.1339256251	-0.110495
O	 1.2929430756	-1.8595297537	-0.6587781015	-0.283684
C	 1.4856776901	-1.7560397284	 0.7165142098	 0.356972
C	 2.2685902693	-0.55826488	 1.2468006823	-0.363677
C	 0.7667451714	-0.5288986313	 1.2596193075	-0.123135
C	 1.5208934044	-3.0280764371	 1.467246887	 0.093572
O	 1.3914763581	-4.1266726715	 0.9927103103	-0.265042
H	 1.0544828857	 1.9825347037	-0.0297116762	 0.120109
H	-0.4536116458	 1.9218301661	-0.9565057271	 0.121882
H	-0.5043219388	 2.0295599394	 0.8065622972	 0.122315
H	-0.9957578101	-0.3015258742	 0.0967049627	 0.090433
H	 0.092826803	-0.8472530476	-1.9717734677	 0.120142
H	 1.5678719535	 0.0192029867	-1.5099603896	 0.097645
H	 2.7737749431	-0.6771798007	 2.199476258	 0.127517
H	 2.8186713806	 0.0258849634	 0.5174396478	 0.132435
H	 0.2516133954	-0.56568448	 2.2130193133	 0.102655
H	 1.6865893687	-2.8736670538	 2.5599062139	 0.065674
