23
gdb 80093	2.0686	1.68945	1.31385	0.2857	90.34	-0.2218	0.0264	0.2482	1136.8923	0.207484	-351.165416	-351.156609	-351.155665	-351.198333	35.054	
C	-0.1454396414	 1.5184979382	-0.0844414654	-0.418199
C	-0.0026513772	 0.0134205174	-0.0081744155	-0.011756
C	 1.3175943102	-0.7223238009	-0.2826050561	-0.121681
C	 2.5892167586	 0.0284155447	-0.3878845354	-0.039882
C	 3.0910539376	 0.7691610836	 0.6041673662	-0.086488
C	 2.4086539604	 0.9293980991	 1.9363985293	-0.271091
C	 1.436824419	-0.2210747734	 2.2823619374	 0.015938
C	 0.4975425537	 0.1707336617	 3.43101612	-0.395569
C	 0.6723184388	-0.7766040124	 1.0869366903	-0.043928
H	 0.809179759	 2.0337585295	 0.0318309236	 0.131523
H	-0.5505667848	 1.8062209742	-1.0609077993	 0.112388
H	-0.8356818323	 1.8950623359	 0.678964561	 0.11367
H	-0.8654515383	-0.5056443603	-0.4206153704	 0.081885
H	 1.2461988895	-1.6003101428	-0.9176875156	 0.077571
H	 3.1227510697	-0.0373920395	-1.3329422731	 0.081426
H	 4.023385044	 1.3080797347	 0.4560430134	 0.082198
H	 3.1581903443	 1.011759833	 2.7335467302	 0.098717
H	 1.8649012746	 1.8855189289	 1.9595840239	 0.106416
H	 2.0600572275	-1.0560178288	 2.6339328687	 0.076359
H	-0.1592464959	 0.9967445683	 3.1372340929	 0.117144
H	-0.1384183383	-0.6700700645	 3.7279301795	 0.108187
H	 1.063303238	 0.4899172726	 4.3133627562	 0.107669
H	 0.1692709031	-1.7111040693	 1.3270807881	 0.077503
