23
gdb 120478	2.93221	0.85796	0.77045	1.0244	82.33	-0.2405	0.0823	0.3228	1599.9797	0.203942	-425.413032	-425.402387	-425.401443	-425.4497	38.329	
C	 0.3310472514	 1.4879005058	-0.3178266722	-0.403258
C	 0.1382846793	 0.0233921836	 0.0211020419	 0.163407
O	 0.9744131331	-0.8429982622	-0.7817405035	-0.318121
C	 1.3871397281	-1.6043205849	 0.3790566417	 0.142666
C	 2.8856148128	-1.8417634003	 0.4170698226	-0.194168
C	 3.3556629064	-2.6880010218	-0.7606443597	-0.075971
O	 4.7601690244	-2.8629575622	-0.6357415488	-0.424684
C	 0.7117586041	-0.5818551159	 1.3362053478	-0.089346
C	 1.605247438	 0.2961767408	 2.2045213993	-0.407272
H	 1.3713394882	 1.7982107093	-0.1915376873	 0.120178
H	 0.050437127	 1.6630472601	-1.3614104007	 0.126332
H	-0.3042423552	 2.1186945689	 0.3134353253	 0.114106
H	-0.9206665548	-0.2437459612	-0.1160136642	 0.067029
H	 0.8666759846	-2.5755586972	 0.3939589979	 0.063897
H	 3.4258975978	-0.8902856732	 0.3985137451	 0.106273
H	 3.1508104492	-2.3529619346	 1.3511069714	 0.102963
H	 2.8316033962	-3.6584164357	-0.753905047	 0.080198
H	 3.0933074949	-2.1784374911	-1.6988395586	 0.108542
H	 5.0727473965	-3.3310195606	-1.4152370997	 0.284542
H	-0.0593444773	-1.036576231	 1.9641120433	 0.071695
H	 2.3997061814	 0.7839179881	 1.6340126892	 0.126251
H	 1.0172131489	 1.0809991389	 2.6918693447	 0.11526
H	 2.0805906049	-0.2957155536	 2.9935751214	 0.11948
