18
gdb 65438	2.59007	1.14601	1.02125	3.8139	80.2	-0.2366	0.02	0.2567	1248.7448	0.145112	-401.927904	-401.918147	-401.917203	-401.963201	35.428	
C	-0.1547083732	 1.4512282993	 0.3086688322	-0.457838
C	 0.046363938	-0.033442055	 0.0538816277	 0.143149
C	 1.401025296	-0.5192988204	-0.4505852174	-0.368689
C	 0.99229463	-0.8329502666	 0.9564386656	 0.015262
N	 1.6858238736	-0.1837573553	 2.0260455167	-0.287716
C	 1.1263946961	-0.0048719017	 3.2585754271	 0.15368
O	-0.0211318114	-0.2642324232	 3.5404286621	-0.310972
C	-1.1159399903	-0.7387009087	-0.4165007957	 0.284246
C	-2.0926702359	-1.3173493446	-0.8139042481	-0.450219
H	 0.7673077498	 1.9121093886	 0.6705241867	 0.11009
H	-0.4579420496	 1.9587145845	-0.6115951729	 0.126639
H	-0.9321390767	 1.604847673	 1.0617415908	 0.148584
H	 1.4253859123	-1.3285702851	-1.1698579501	 0.133436
H	 2.1593524849	 0.2443333565	-0.5938762135	 0.117068
H	 0.6681107393	-1.845587697	 1.1760764028	 0.124949
H	 2.6774024826	-0.026881053	 1.9304202164	 0.249901
H	 1.853273764	 0.4204137882	 3.9801077164	 0.074865
H	-2.9588714095	-1.8287144993	-1.1534745568	 0.193564
