21
gdb 108504	2.66201	1.47792	1.20545	1.268	77.24	-0.2514	0.0781	0.3295	1133.2398	0.183071	-424.226153	-424.217623	-424.216679	-424.259387	32.73	
C	-0.1419700671	 1.526108439	 0.0017577994	-0.384812
C	-0.0381579872	-0.0022103295	-0.0311660157	-0.257095
C	 0.7693867192	-0.5234903912	-1.2049222436	 0.424413
C	 0.144038057	-0.4127017566	-2.6357309537	-0.290372
C	 0.2681318251	-1.9547355812	-2.8113939148	-0.252621
C	 0.9383443337	-2.0646136725	-1.41219918	 0.034258
O	 2.3372000665	-2.286075838	-1.3992256971	-0.255814
C	 2.9330618951	-1.0362640804	-1.6730749057	 0.001869
O	 2.1090870198	-0.0472725349	-1.103990848	-0.293635
H	 0.8515002196	 1.9773396795	 0.0654384242	 0.13696
H	-0.6291871723	 1.9127829293	-0.8998354089	 0.115263
H	-0.7263884415	 1.8590268385	 0.8645944526	 0.111306
H	 0.4302511304	-0.3655815546	 0.8914503879	 0.105868
H	-1.0401866389	-0.4467810349	-0.0769737496	 0.093731
H	-0.8780962275	-0.0270065698	-2.6487022135	 0.10265
H	 0.7469796686	 0.1840245741	-3.3238368751	 0.108041
H	-0.6865095585	-2.4814560632	-2.8804659498	 0.104618
H	 0.9086237012	-2.2910223887	-3.6298213678	 0.109528
H	 0.4811698038	-2.7487119629	-0.6943828989	 0.082781
H	 3.9199815005	-0.9985647393	-1.2034111111	 0.120202
H	 3.0307437523	-0.8832432828	-2.7632987108	 0.082859
