20
gdb 6611	4.18866	1.41688	1.31155	1.342	75.44	-0.2497	0.0743	0.324	1027.973	0.175679	-348.984479	-348.976131	-348.975187	-349.016785	32.904	
C	-0.2399536487	 1.5341507746	-0.0505479099	-0.447505
C	-0.0120846282	 0.027132515	-0.0167465897	 0.43168
O	-1.2283353261	-0.6797224798	-0.1771071217	-0.478848
C	 1.1864660955	-0.4456841823	-0.9090388717	-0.362059
C	 2.0234263598	-0.5651021371	 0.3704064995	 0.401281
C	 3.2613324715	-1.3712080332	 0.6089955422	-0.333433
C	 3.3224401701	 0.1414266763	 0.6353858748	-0.31787
C	 0.761133773	-0.4684119123	 1.2360251221	-0.339699
H	 0.6923797293	 2.079839464	 0.1239450705	 0.123648
H	-0.6273843094	 1.8467840686	-1.0289505379	 0.102449
H	-0.964290575	 1.8266407012	 0.7162335952	 0.121745
H	-1.6732668218	-0.3358948474	-0.9595628038	 0.271511
H	 0.9648983753	-1.4172615192	-1.3608558237	 0.100255
H	 1.539048773	 0.2450694124	-1.681415156	 0.087794
H	 3.3536109317	-1.9022683316	 1.5513994871	 0.110293
H	 3.7094360065	-1.8851390103	-0.2358046811	 0.109393
H	 3.8119868641	 0.645883082	-0.1921690363	 0.10797
H	 3.4556014349	 0.6294403155	 1.5961486348	 0.108805
H	 0.7842218041	 0.2025043012	 2.0997131811	 0.093246
H	 0.3852642002	-1.4470292375	 1.5478118743	 0.109346
