16
gdb 43724	4.84138	1.07113	1.03131	1.2048	68.96	-0.2468	-0.0338	0.2131	1147.0386	0.123992	-437.906176	-437.898627	-437.897683	-437.939231	28.388	
O	 0.1506973328	 0.306765099	-0.9736011252	-0.283249
C	 0.0407381013	 1.2631072501	-0.2656851078	 0.410452
C	-1.1570910745	 2.0754811043	 0.2536195376	-0.409572
C	-0.1476773324	 3.1421547059	 0.7689085167	 0.384229
C	 1.0439489344	 2.2022142327	 0.4242933247	-0.409574
C	-0.181415	 4.5636570836	 0.1483563422	-0.254644
N	-0.3227853156	 5.4841967928	 1.2865013608	-0.255152
C	-0.3600907685	 4.7478632939	 2.3149571763	 0.106404
O	-0.2724500308	 3.4003021516	 2.1862975821	-0.252343
H	-1.8902283962	 2.3944973375	-0.4922749759	 0.135728
H	-1.6776911383	 1.5692421148	 1.0728388462	 0.149546
H	 1.4868122974	 1.751449997	 1.3182207955	 0.149546
H	 1.8417449374	 2.6093799487	-0.2028893109	 0.135728
H	 0.7344534757	 4.7959716445	-0.405736051	 0.124134
H	-1.0216319475	 4.6947898138	-0.5420350936	 0.124134
H	-0.4593702153	 5.0935798899	 3.3377263524	 0.144633
