17
gdb 5920	3.78305	1.3778	1.2933	3.1628	71.02	-0.2527	0.0221	0.2748	1007.9554	0.139255	-363.858059	-363.848843	-363.847899	-363.89126	33.75	
C	 0.0545160121	 1.5776990751	 0.0071185558	-0.403464
C	 0.0499156013	 0.0321319079	 0.0322795899	 0.092522
C	 0.8290164126	-0.493665435	 1.2594594187	-0.403462
N	-1.3425924687	-0.4744168808	 0.0556489484	-0.300718
C	-2.2516253071	-0.2244576498	 1.0313004377	 0.163073
O	-2.0672019702	 0.4465399311	 2.027187128	-0.333528
C	 0.6603873661	-0.483754307	-1.1985464517	 0.314069
C	 1.1572078668	-0.9078084549	-2.2071100787	-0.470242
H	 1.0827343591	 1.9458833682	-0.0351336896	 0.123102
H	-0.4830636019	 1.9449758574	-0.8703733263	 0.1207
H	-0.4296554577	 1.954326124	 0.9091851193	 0.157336
H	 0.3509569172	-0.1333305525	 2.1713875177	 0.157339
H	 0.8372832814	-1.5862682424	 1.2646183757	 0.1207
H	 1.8618448505	-0.1378125836	 1.2246427832	 0.1231
H	-1.6294673867	-1.0503043376	-0.7195525877	 0.254966
H	-3.2202071562	-0.7186315949	 0.8129430894	 0.081166
H	 1.6056425313	-1.2778220953	-3.0961793397	 0.20334
