16
gdb 20541	4.41334	1.50657	1.21748	3.7056	65.92	-0.2677	-0.0359	0.2318	989.8668	0.129816	-379.909934	-379.902224	-379.90128	-379.942396	28.053	
C	-0.0626125253	 1.5740878045	 0.4633383635	-0.400661
C	-0.067238059	 0.1024788775	 0.0310286106	-0.078191
C	 0.9588350075	-0.7259983066	 0.8264381012	-0.386604
C	-1.4363836138	-0.4998777963	 0.1389662721	 0.267742
C	-2.6087153743	-0.0329621151	 0.6444568946	-0.057049
O	-3.5528144381	-0.9641500333	 0.5107776514	-0.166783
N	-2.9206520628	-2.0784233251	-0.1197517527	-0.00549
N	-1.7174471301	-1.7767647314	-0.3149589775	-0.180445
H	 0.9348258722	 2.0039731735	 0.3364967956	 0.123216
H	-0.764311661	 2.1711070582	-0.127694953	 0.120069
H	-0.3332863726	 1.6754028984	 1.5206017619	 0.119393
H	 0.2202139032	 0.0545067572	-1.0278348957	 0.10423
H	 1.9682997111	-0.3320916516	 0.6730587047	 0.115282
H	 0.7381652972	-0.6913175266	 1.8987899794	 0.118262
H	 0.944131988	-1.7720803301	 0.5107304963	 0.140983
H	-2.9015425021	 0.8963748365	 1.1031422577	 0.166046
