17
gdb 44799	2.74373	1.52468	1.18953	3.4045	73.44	-0.2463	-0.0146	0.2317	1064.3422	0.135404	-421.791842	-421.784023	-421.783079	-421.824545	29.592	
O	 0.0427446613	 0.0011312145	 0.1566953586	-0.319477
C	 0.0251552834	 1.2001554375	 0.1479142024	 0.359401
C	-1.1190005002	 2.2424520538	 0.059866504	-0.350423
C	-0.0343774251	 3.3105146967	-0.1437159488	-0.099906
C	 0.8689299784	 3.3329710155	 1.0344266076	-0.334046
C	 1.098591032	 2.2440952808	-0.0117571197	 0.244339
C	 2.3841143237	 2.0890506557	-0.7320975344	-0.056746
C	 3.0057817217	 0.7676825684	-0.9221843088	-0.185582
O	 2.3324627734	 1.4247705468	-1.9982198548	-0.237911
H	-1.7284447564	 2.0461338697	-0.8268393664	 0.140183
H	-1.7729815702	 2.3583009228	 0.9293028491	 0.122169
H	-0.071254862	 4.1063457786	-0.8751289613	 0.114766
H	 1.6437629046	 4.0940207518	 1.0400783316	 0.12937
H	 0.4992308487	 3.0717602224	 2.022482539	 0.12523
H	 3.034616125	 2.965275183	-0.717049642	 0.088781
H	 4.0883141782	 0.6977298916	-1.0207897195	 0.113513
H	 2.4981794336	-0.1094258495	-0.5286962266	 0.14634
