19
gdb 19197	3.02815	2.15595	1.73347	1.6986	71.34	-0.1953	0.0739	0.2692	852.327	0.166714	-365.018993	-365.011595	-365.010651	-365.049977	29.534	
C	 0.0078557236	 1.469023572	-0.0987086555	-0.33252
N	 0.0134819843	 0.0127686057	-0.0178801297	-0.102445
C	-1.1687790385	-0.6680863137	 0.6224429043	-0.053881
C	-0.8384515812	-2.1336231767	 0.275144701	-0.21074
C	 0.6855864785	-2.1067073593	 0.6638409488	-0.209954
C	 0.7593985664	-0.6364399527	 1.1217964613	-0.020403
C	-0.4964089433	-0.5343019956	 2.0258561341	 0.161268
O	-0.5962896028	 0.7044321193	 2.6887696452	-0.439748
H	 0.9978590667	 1.7988594026	-0.434186592	 0.111537
H	-0.7095209668	 1.7673817516	-0.8723011494	 0.107646
H	-0.2364868516	 1.9966281334	 0.8305456607	 0.117506
H	-2.1680169818	-0.2861889096	 0.4032465829	 0.058565
H	-1.4173587949	-2.8518555424	 0.8625912817	 0.091584
H	-0.9963058714	-2.3372707736	-0.7848131059	 0.107939
H	 0.9385975217	-2.8141455297	 1.4580888711	 0.094001
H	 1.3370887605	-2.2878912629	-0.1918906133	 0.108098
H	 1.7217133011	-0.2182996648	 1.4183601303	 0.070439
H	-0.6675673087	-1.365029388	 2.7299135549	 0.058567
H	-1.5037170416	 0.8067817243	 2.9937369893	 0.282542
