18
gdb 89607	3.83329	1.11605	0.94992	2.1792	73.19	-0.2408	-0.0191	0.2217	1238.0091	0.146179	-439.062697	-439.053684	-439.05274	-439.096842	33.039	
C	 0.9705322877	 0.4663257112	 0.601545878	-0.48089
C	-0.3364167634	 0.3430184722	-0.1529004914	 0.297792
O	-1.3836298784	 0.7852856862	 0.2713624373	-0.312325
C	-0.3075291843	-0.3582207703	-1.4663632249	 0.239224
C	-1.5050932511	-0.5159627822	-2.4082939636	-0.348113
C	-1.0229791845	-1.9753953216	-2.7199479024	 0.100869
O	-0.5964948306	-2.266029847	-4.0334883803	-0.433019
C	 0.1616431418	-1.7785126816	-1.7708503336	-0.088002
N	 0.9576281194	-0.6320883894	-2.1452615143	-0.356222
H	 1.4707632305	-0.5028929893	 0.6892927989	 0.140075
H	 1.6558726257	 1.1141796736	 0.0457449923	 0.152356
H	 0.7779867545	 0.8850852409	 1.5898512986	 0.135099
H	-2.4606208553	-0.4798871081	-1.8840401498	 0.13206
H	-1.523673791	 0.173010493	-3.2585704584	 0.098777
H	-1.730728891	-2.7259322939	-2.3460905589	 0.084177
H	-1.3662410374	-2.2513934803	-4.6115791234	 0.289987
H	 0.5945900907	-2.5204758948	-1.109689005	 0.103719
H	 0.9067762767	-0.4471376589	-3.1458776192	 0.244434
