17
gdb 37707	2.7634	2.32675	2.12133	2.0832	68.06	-0.2337	0.0831	0.3167	773.8191	0.140545	-421.809558	-421.804149	-421.803205	-421.838951	24.27	
C	-0.0346590044	 1.5551969279	 0.0101889605	-0.24514
C	 1.4684312967	 1.837404086	 0.0564427817	-0.087461
C	 2.1286138899	 1.4084823091	 1.3789550357	-0.126922
C	 1.6606325167	 0.0126497308	 1.674202411	 0.113654
O	 0.3959453177	-0.4663650355	 1.2770587512	-0.270606
C	 0.01747759	 0.0154224245	-0.0037585975	 0.1757
O	 1.0060281974	-0.2909336524	-0.9718587798	-0.258335
C	 2.0926782338	 0.5678612833	-0.6322647176	 0.081753
C	 2.7750906997	 0.181804537	 0.6867281666	-0.129749
H	-0.5850848504	 1.9375166893	 0.8726566882	 0.110031
H	-0.4938389175	 1.9231975444	-0.9114813846	 0.105994
H	 1.793742084	 2.7975197654	-0.3407841473	 0.076198
H	 2.5332449981	 2.0700261519	 2.1351994075	 0.088166
H	 1.9202111493	-0.3998886934	 2.6420523701	 0.107479
H	-0.9032851049	-0.5032582057	-0.2700264367	 0.088036
H	 2.729767968	 0.7087905482	-1.5039816416	 0.083178
H	 3.7540647559	-0.2660351208	 0.8046192326	 0.088024
