16
gdb 9334	5.19802	0.93311	0.81059	4.7012	65.54	-0.2343	-0.0642	0.17	1340.898	0.12948	-417.060971	-417.052036	-417.051092	-417.095395	30.826	
O	-0.0002025829	 1.3689751793	-0.31774592	-0.424345
C	-0.0191912795	-0.0188631757	 0.0036943681	-0.096911
C	-1.4767845413	-0.4270266985	 0.1346790234	-0.118613
N	-2.1816152861	-0.1095152157	-1.0915519123	-0.324731
C	-3.4206511236	-0.6174423043	-1.3568400786	 0.289511
N	-3.9798449754	-1.5212269737	-0.6444851081	-0.519369
C	-4.0586093204	-0.0402368724	-2.6028496424	 0.108373
O	-5.1365951814	-0.3907554806	-3.0039412784	-0.236406
H	 0.9035958781	 1.6244178803	-0.522414265	 0.29535
H	 0.4613562765	-0.6123254535	-0.787848981	 0.101084
H	 0.5023617357	-0.2200339477	 0.9504710693	 0.100913
H	-1.5613659165	-1.5013486921	 0.3178154446	 0.142222
H	-1.9310254617	 0.0839167016	 0.996337932	 0.119251
H	-1.9178037174	 0.7681658583	-1.5141773675	 0.251043
H	-4.8694722055	-1.765945023	-1.0835411499	 0.232896
H	-3.4662666486	 0.7388300777	-3.135054034	 0.079732
