15
gdb 47187	2.30026	1.83126	1.09742	4.8823	72.85	-0.221	-0.0316	0.1894	1048.6752	0.114047	-453.983364	-453.975495	-453.974551	-454.016154	29.053	
N	 0.036243387	 0.7433045172	 1.1734379839	-0.498071
C	-0.026149268	 0.0961046129	 0.0843770868	 0.324506
O	 1.1350673908	 0.0377834124	-0.7184692306	-0.239452
C	 1.6024426516	-1.0236926778	-1.4259535833	 0.425461
O	 2.6405688961	-0.931577852	-2.0148923762	-0.302273
C	 0.7474596476	-2.2851671638	-1.4043162345	-0.313045
N	-0.5324670008	-2.0623082254	-2.0430618155	-0.290181
C	-1.4875263507	-1.3100052405	-1.4274939149	-0.003936
C	-1.282781398	-0.4189136632	-0.434435478	-0.134866
H	 0.9822354947	 1.0949656224	 1.3245090039	 0.230092
H	 1.2983625693	-3.0526385715	-1.9458655951	 0.147171
H	 0.6023724987	-2.6068973569	-0.3607000067	 0.140337
H	-0.8266485472	-2.7356007546	-2.727831155	 0.264254
H	-2.4988000287	-1.4880560452	-1.780097876	 0.126881
H	-2.1495928625	 0.0101152259	 0.0498201415	 0.123124
