16
gdb 112214	2.55496	1.33572	0.97573	1.79	67.13	-0.2726	-0.006	0.2666	1184.7344	0.123213	-474.982537	-474.974155	-474.973211	-475.015986	30.656	
O	-0.0161630561	 1.4571922056	-0.1474692261	-0.412604
C	-0.0075538015	 0.1258445788	 0.3236091447	-0.076334
C	-1.323210299	-0.5693293929	 0.0375594084	 0.02345
O	-1.5426590378	-0.6699233394	-1.4204671522	-0.300493
C	-1.6544537368	-2.0524870438	-1.3743426455	 0.388397
N	-1.8830462693	-2.8977524314	-2.2667844114	-0.543832
C	-1.3941978374	-2.095979043	 0.1050117502	 0.276186
C	-0.6913028842	-3.0908989257	 0.9181425995	-0.254574
O	-2.1003497991	-2.860595115	 1.0457918762	-0.249258
H	-0.1968142653	 1.4185042578	-1.093891331	 0.296521
H	 0.8152633511	-0.4603710546	-0.1148448205	 0.096323
H	 0.1524678901	 0.1728914524	 1.4064647115	 0.122269
H	-2.1670580002	-0.0527926872	 0.5028426873	 0.120305
H	-2.015381566	-2.4646018558	-3.1818002633	 0.236217
H	-0.4138762252	-4.0390886349	 0.4629631756	 0.147293
H	-0.0867332334	-2.7655132107	 1.7630129766	 0.130134
