20
gdb 6567	2.81646	2.03696	1.49473	1.7713	75.82	-0.2258	0.089	0.3148	954.0115	0.174785	-348.960611	-348.95197	-348.951026	-348.992915	33.169	
C	-0.1824339458	 1.657953539	-0.0138697369	-0.445108
C	 0.0175976468	 0.1509968902	 0.0154096935	-0.02393
C	 1.1979478138	-0.5748881225	-0.7014055968	 0.398046
C	 1.4280464454	-0.8134399047	-2.1612018046	-0.513945
C	 2.1810023666	-0.0716234794	 0.3870200198	-0.310779
C	 0.8911939309	-0.5809818081	 1.0807756082	 0.398046
C	 0.6201785914	-0.8294492718	 2.5318681546	-0.513946
O	 0.9234901098	-1.7533178183	 0.1648310892	-0.375776
H	 0.7410139267	 2.2203893587	 0.1472729277	 0.117158
H	-0.5965956765	 1.971227895	-0.9787380023	 0.1205
H	-0.8961165213	 1.965215146	 0.7587148495	 0.120499
H	-0.9234534975	-0.3838460532	-0.1483997286	 0.072578
H	 1.609359684	 0.1348882544	-2.6774472937	 0.1236
H	 2.2969824693	-1.4607749197	-2.3143953333	 0.131149
H	 0.5544472167	-1.2922934475	-2.6143146944	 0.130446
H	 3.0551903718	-0.7082521765	 0.5353139928	 0.09812
H	 2.427176828	 0.9914850003	 0.4330208708	 0.088148
H	 0.6170007169	 0.1152735314	 3.0852216153	 0.1236
H	-0.3539670536	-1.3105848128	 2.6635364205	 0.130451
H	 1.3887637565	-1.4785048205	 2.9626396886	 0.131143
