19
gdb 46499	3.49501	1.22942	1.08268	2.5424	76.66	-0.2493	0.0283	0.2776	1158.7567	0.161908	-419.198409	-419.190477	-419.189532	-419.231782	30.728	
N	-0.0507813362	 1.3117088938	 0.6843028247	-0.517772
C	 0.0477332875	 0.0892427852	 0.3693195416	 0.39996
C	-1.1172864202	-0.7016983531	-0.1693904173	-0.295924
C	-1.3009866801	-2.0469210447	 0.5682236003	-0.312804
C	 0.0564658343	-2.6767116475	 0.8863546629	 0.325672
C	 0.3112429246	-3.2847890051	 2.2174383252	-0.275857
N	 0.2075052065	-4.1307224233	 1.0112771907	-0.358003
C	 1.198246606	-1.993614272	 0.1650013026	-0.137246
O	 1.2238287381	-0.5959480619	 0.4867611769	-0.245986
H	 0.853124324	 1.6609864294	 1.0112553513	 0.216795
H	-2.0095529829	-0.079618891	-0.1069547904	 0.136688
H	-0.9313114161	-0.8955556175	-1.2335171417	 0.126663
H	-1.869990276	-1.8887471558	 1.4893662325	 0.121814
H	-1.893309659	-2.7193120358	-0.0636778433	 0.109174
H	 1.301675833	-3.2417971255	 2.6630718725	 0.123376
H	-0.5074143746	-3.2960205722	 2.9323487606	 0.116057
H	-0.7061361207	-4.5774178014	 0.9778807154	 0.231493
H	 2.1612809509	-2.3959969826	 0.4822230685	 0.12669
H	 1.115375001	-2.130655569	-0.9218434829	 0.10921
