17
gdb 20187	3.37046	2.70122	2.02753	0.4407	66.46	-0.2032	0.0808	0.284	724.2515	0.145548	-363.802118	-363.796179	-363.795235	-363.831909	24.391	
C	 0.0295906779	 1.5320870927	-0.066327611	-0.193521
C	 1.551622511	 1.5394833312	-0.1206993817	-0.136159
C	 2.1631787098	 0.6693690858	 0.9619271342	 0.132348
O	 1.7557973858	 0.5357476131	 2.2931361784	-0.270642
C	 0.3744385691	 0.2700957496	 2.5276696973	-0.07438
C	-0.3092539685	-0.4937199556	 1.3836973331	-0.179841
N	 0.0213142893	 0.032425573	 0.0540280336	-0.114181
C	 1.4833677969	-0.0008772793	-0.1714546372	-0.082489
H	-0.4568499463	 2.0886736075	 0.7404692657	 0.104367
H	-0.4302005201	 1.8234064346	-1.0160660185	 0.110424
H	 2.158934552	 2.2115419691	-0.7149801929	 0.089856
H	 3.2488858477	 0.6624914959	 0.9303521936	 0.106636
H	 0.3266239726	-0.312058409	 3.4539746364	 0.105472
H	-0.1484380772	 1.2187975431	 2.7157577024	 0.098309
H	-0.0033776101	-1.5461652069	 1.3928747867	 0.111935
H	-1.3946346458	-0.4659212041	 1.535940609	 0.103464
H	 1.918109316	-0.7281835505	-0.8499748392	 0.088402
