17
gdb 86772	3.92783	0.94477	0.81508	2.1794	74.84	-0.2495	-0.0305	0.219	1376.5031	0.133044	-421.791606	-421.782222	-421.781278	-421.826372	33.853	
O	 0.1958409939	 1.4868161041	 0.1229069897	-0.43388
C	 0.0893469152	 0.0999514522	 0.0619930355	 0.07416
C	-1.3083782083	-0.6213275915	 0.0811136263	-0.311058
C	-0.7914737553	-1.6342066931	-0.9936255885	-0.091442
C	-1.7170910163	-2.0814039424	-2.1306562539	-0.371613
C	-1.0876635094	-3.0416135822	-3.0287104185	 0.308022
C	-0.5575758561	-3.8468575543	-3.7456267272	-0.440879
C	 0.2623452133	-0.5622545991	-1.3059490737	 0.333412
O	 0.7188542257	-0.1220195448	-2.3249910723	-0.306387
H	 0.3216990481	 1.8008120035	-0.7819770393	 0.296669
H	 0.739545998	-0.3560557725	 0.819645273	 0.110526
H	-1.6307741796	-1.032831076	 1.0374601565	 0.119029
H	-2.0816632128	 0.0360695115	-0.325122782	 0.12145
H	-0.3325261879	-2.502539424	-0.5108856777	 0.116887
H	-2.6239368404	-2.5231257752	-1.6983294921	 0.137617
H	-2.0401058143	-1.1998345194	-2.6983686754	 0.138207
H	-0.0905050537	-4.5470321768	-4.3928986804	 0.199281
