18
gdb 99202	6.08717	0.56351	0.5208	2.6456	79.93	-0.247	0.037	0.2841	2109.7485	0.144727	-439.102014	-439.090808	-439.089864	-439.142101	36.069	
C	 0.0958127263	 1.374969812	-0.1948790913	-0.329839
N	 0.2368477861	-0.0553695429	-0.0322450532	-0.358788
C	 0.6236285927	-0.6198695397	 1.1410750797	 0.536765
O	 0.8911824677	-0.0288135214	 2.1652772504	-0.411378
O	 0.6696626731	-1.9725885511	 1.0023329941	-0.275687
C	 1.071282214	-2.6709915659	 2.1963390201	-0.224292
C	 1.0823370545	-4.0981638831	 1.9243375395	 0.00942
C	 1.1023053472	-5.2859398283	 1.7340327059	 0.131376
C	 1.1248812525	-6.7217341516	 1.4988752475	-0.498731
H	 0.7707869595	 1.7601115182	-0.9678082147	 0.125685
H	-0.9316175438	 1.6500342391	-0.459587297	 0.125685
H	 0.3503588603	 1.8395394883	 0.7584031688	 0.170235
H	 0.0475181788	-0.6761162489	-0.8008710353	 0.254708
H	 2.0604766668	-2.3159483355	 2.5060479816	 0.145321
H	 0.3780872633	-2.4247122066	 3.0083171429	 0.145321
H	 2.1255356861	-7.1371973902	 1.6601919242	 0.150623
H	 0.4327950868	-7.2466795114	 2.166252156	 0.150626
H	 0.8319949381	-6.9535997709	 0.469029641	 0.152949
