15
gdb 44162	3.10981	1.17961	1.00494	5.1349	70.35	-0.2519	-0.0417	0.2102	1163.8728	0.111941	-416.776304	-416.768442	-416.767498	-416.809791	28.745	
O	 0.2400047634	 0.0367463678	-0.1137443649	-0.288222
C	 0.1082677441	 1.224214125	-0.1202669167	 0.402614
C	-1.1239064971	 2.1599910353	 0.0359290707	-0.382159
C	-0.1201854781	 3.3219796149	 0.1319495821	-0.037912
C	 1.0828900443	 2.3902015586	-0.0534326454	-0.167292
N	 0.7296967993	 3.424959152	-1.0209327628	-0.077931
C	 0.2727858879	 3.1157604507	-2.3780140156	-0.29644
C	 1.4256210913	 2.9683465202	-3.2712559363	 0.289753
N	 2.3240832637	 2.8423354753	-3.9852152999	-0.29273
H	-1.8713345552	 2.1940297293	-0.7606679769	 0.130349
H	-1.6270186756	 1.940015752	 0.9820930371	 0.146199
H	-0.1899476949	 4.1725935604	 0.7994601418	 0.12437
H	 2.0787277617	 2.3990802645	 0.3740125145	 0.128968
H	-0.3457255828	 2.2125016828	-2.4715849396	 0.155429
H	-0.330555882	 3.9613938212	-2.726464338	 0.165005
