14
gdb 125330	5.45794	1.31475	1.06651	4.3123	70.21	-0.2318	-0.0261	0.2057	1059.1248	0.102819	-432.87263	-432.865796	-432.864852	-432.903927	25.869	
C	-0.0048383567	 1.4744338515	 0.0734938717	-0.483152
C	 0.0190787712	-0.0129004972	-0.0381921516	 0.280067
C	-0.0849723318	-0.7686430366	-1.1829865241	-0.237393
N	-0.0047003852	-2.08652109	-0.7354495605	-0.047824
C	-0.0058536264	-3.4213004148	-1.0271081178	 0.042453
N	 0.125070511	-4.1532304064	 0.0387082549	-0.128247
O	 0.2210649187	-3.2498315788	 1.1282555075	-0.246059
C	 0.1385947208	-2.0069331181	 0.626379604	 0.525658
N	 0.1604004134	-0.8032458788	 1.1071331123	-0.437364
H	 0.9214038238	 1.8440082071	 0.5256973339	 0.143507
H	-0.1225423677	 1.9417978731	-0.9073898958	 0.122337
H	-0.8293386808	 1.8014312279	 0.7155469629	 0.143544
H	-0.2007909096	-0.5088848331	-2.2199709202	 0.143184
H	-0.1014822407	-3.8464137257	-2.0134910472	 0.179289
