12
gdb 129308	3.826	1.23008	0.93082	2.5848	78.37	-0.2601	-0.1095	0.1506	1143.8279	0.075532	-431.585971	-431.578357	-431.577413	-431.618356	28.023	
N	-0.0029299564	 1.3307928283	 0.0103985073	-0.527728
C	 0.0004802558	 0.0608472311	 0.0033175636	 0.440268
O	 1.1641600327	-0.6714459917	-0.0070171352	-0.289987
N	 1.1496691248	-2.1416810145	-0.0151513519	 0.047522
N	 0.0776799982	-2.7263613921	-0.0126309802	-0.143288
C	-1.1778882516	-2.0575580567	-0.002139032	 0.173525
C	-1.225122344	-0.7116060338	 0.0056226421	-0.225294
C	-2.3106923464	-2.9081383945	-0.0007304474	 0.266667
C	-3.2728670653	-3.6300190226	 0.0004534386	-0.352673
H	 0.9501393688	 1.6982111677	 0.0073032285	 0.235527
H	-2.1582316905	-0.1642265794	 0.0137177405	 0.158113
H	-4.1217771259	-4.2694618417	 0.001439756	 0.217347
