13
gdb 9472	3.32332	1.74777	1.57246	2.737	56.47	-0.2777	-0.058	0.2197	836.0531	0.094142	-435.731087	-435.723769	-435.722825	-435.762882	26.367	
O	 0.1191709444	 1.4702367756	 0.0225378346	-0.460866
C	 0.0103711636	 0.0978943118	-0.0270200003	 0.197553
C	-1.4125900439	-0.5113349378	-0.1946958922	-0.132572
O	-0.9700525754	-1.2420570992	-1.3761338376	-0.248444
C	 0.2614156802	-0.6208746347	-1.3674651879	 0.379088
N	 1.2193928437	-0.6544169984	-2.1684976969	-0.527515
C	 0.809760954	-0.5515494531	 1.0908736285	 0.125798
O	 1.4612843215	 0.1166647972	 1.8524106694	-0.265071
H	 0.7565326235	 1.6624759186	 0.7309404989	 0.302509
H	-1.7802266623	-1.1908018985	 0.5781014979	 0.126457
H	-2.1576433201	 0.2470848501	-0.4427487352	 0.146023
H	 1.0179607492	-1.2336527291	-2.9854251331	 0.238464
H	 0.7589178218	-1.6551754625	 1.1595880539	 0.118577
