18
gdb 14186	2.78548	2.24702	2.10857	1.5507	72.1	-0.2188	0.0777	0.2966	805.2318	0.153992	-343.882981	-343.875626	-343.874682	-343.913966	28.994	
C	 0.0120687726	 1.4626430923	-0.0406026039	-0.532951
C	 0.0212120813	-0.0344471812	-0.0562504452	 0.33033
N	 0.6578675767	-0.8715924587	-1.1316532125	-0.380238
C	 0.0957824415	-1.8808687384	-0.1765188254	-0.08628
C	 0.4851457412	-1.0193786123	 1.0576479107	-0.048803
N	-0.8694917126	-1.0300274782	 1.699476751	-0.384788
C	-1.168875082	-1.0348656128	 0.2258154874	 0.300778
C	-2.554951821	-1.0468151062	-0.3439838534	-0.528858
H	 1.0307949662	 1.8563611711	-0.1115024901	 0.132234
H	-0.5669131913	 1.8664162647	-0.8788185294	 0.117361
H	-0.4388508589	 1.8179107217	 0.8909958673	 0.141793
H	 0.0914699688	-0.8387209555	-1.9849258137	 0.200574
H	 0.1902992487	-2.9603652517	-0.3152081318	 0.073373
H	 1.4222790136	-1.0109260732	 1.6139053974	 0.084811
H	-1.0597895912	-1.9529383232	 2.1010928061	 0.202523
H	-3.1384794735	-0.2040738419	 0.03998609	 0.135352
H	-2.5218567495	-0.9733502318	-1.4371426607	 0.118815
H	-3.0833908607	-1.9716314347	-0.0873173139	 0.123973
