20
gdb 36090	3.53019	1.14662	1.0745	3.9756	82.23	-0.3038	0.0357	0.3396	1193.6031	0.173585	-366.028292	-366.020486	-366.019542	-366.06086	30.913	
N	-0.0736000734	-1.142199837	-0.1842780877	-0.31807
C	-0.0543782673	 0.0056547882	-0.0510298264	 0.268524
C	-0.0015564935	 1.4592892441	 0.1118075374	-0.457091
C	 1.4184281619	 2.0072403266	 0.0364433806	 0.35448
C	 2.2670907227	 1.9564948057	-1.2697441552	-0.254521
C	 3.0566983121	 3.092830251	-0.5578244207	-0.01684
C	 1.6850471039	 3.542269832	 0.0229099114	-0.275761
C	 3.6833235474	 2.347740623	 0.6372622185	-0.212293
C	 2.4366186693	 1.5199666746	 1.0917749927	-0.25358
H	-0.6290288471	 1.9158660246	-0.6625215564	 0.146682
H	-0.4547680855	 1.7151431896	 1.0779439041	 0.148856
H	 2.790882064	 1.026063307	-1.5060498277	 0.103508
H	 1.7124214666	 2.3106271806	-2.1426066733	 0.09685
H	 3.6931756721	 3.7810401094	-1.1132687654	 0.064856
H	 1.0677742859	 4.0677206304	-0.7105266852	 0.096273
H	 1.6737732179	 4.0750811587	 0.9790291947	 0.09127
H	 4.5218782097	 1.7131022273	 0.3377384101	 0.102412
H	 4.0393923578	 3.0312306293	 1.413237202	 0.098713
H	 2.1165094481	 1.7602653946	 2.1106514934	 0.096579
H	 2.5969826974	 0.4399344604	 1.0364871831	 0.119152
