17
gdb 82646	2.41337	1.72889	1.34577	0.6832	67.43	-0.2167	0.0597	0.2765	1001.4826	0.134013	-458.878266	-458.869979	-458.869034	-458.91052	32.262	
C	 0.0427004318	 1.6238543644	-0.0347898884	-0.431585
C	 0.0532344659	 0.1033315302	-0.0182880473	-0.038237
C	 1.1261840181	-0.6512433093	-0.8622408133	-0.039605
O	 2.3994301079	-0.1019013826	-0.4219879117	-0.279727
C	 2.1874867484	-0.7772753277	 0.813990873	-0.098723
C	 0.6589721821	-0.6658825629	 1.1605968244	 0.276527
O	 0.1772123954	-0.8126021745	 2.4407797415	-0.457943
C	 1.1936107012	-1.7666566646	 0.2803057567	 0.2808
O	 0.9973565762	-3.114876461	 0.3359817609	-0.44343
H	 1.0559695212	 2.0140894019	 0.0896595066	 0.132117
H	-0.3580429674	 2.0070573279	-0.9794894852	 0.115382
H	-0.5851207296	 2.0190862952	 0.7715717237	 0.111493
H	-0.9327333439	-0.3173106978	-0.2440741856	 0.086427
H	 1.0470265213	-0.77093237	-1.9409270171	 0.086065
H	 2.9743302311	-0.8259044175	 1.5557732457	 0.111958
H	 0.4329209213	-0.0395625963	 2.9562992917	 0.291605
H	 1.7620983289	-3.5542376455	-0.0545562555	 0.296875
