23
gdb 57487	2.83574	1.2454	1.10074	1.1781	81.73	-0.2495	0.0821	0.3316	1251.1927	0.20447	-425.441737	-425.431739	-425.430794	-425.476506	37.335	
C	-0.1573136388	 1.5907133375	-0.0663588354	-0.413135
C	-0.0071374223	 0.0620200868	-0.0014781386	 0.220806
C	 0.7704445949	-0.3469449845	 1.2619654701	-0.41394
C	-1.3923232615	-0.6086034268	-0.0046807978	-0.415147
C	 0.7682188242	-0.4433639933	-1.227546201	 0.247294
O	 0.1116815226	-0.101343238	-2.4447731472	-0.282125
C	 1.0894917762	 0.3495290419	-3.3758631056	-0.089603
C	 2.4216555335	 0.0878176193	-2.658272264	-0.10858
O	 2.0532738111	 0.1334290665	-1.2902661993	-0.261585
H	 0.820690048	 2.0783529219	-0.085631378	 0.11904
H	-0.7076763544	 1.8888620695	-0.9629136863	 0.119663
H	-0.7063244722	 1.9557221835	 0.8076258646	 0.103175
H	 0.2267286938	-0.0341679814	 2.1593834826	 0.108586
H	 0.9007140277	-1.4339487425	 1.3147343133	 0.106517
H	 1.7616403811	 0.1131602023	 1.2819591543	 0.128428
H	-1.9530973435	-0.3468654204	-0.9056410255	 0.130114
H	-1.3058774284	-1.7004869851	 0.0361286522	 0.106391
H	-1.9708310411	-0.2880239324	 0.8677693423	 0.108212
H	 0.8601328546	-1.5459254168	-1.1828105015	 0.056031
H	 0.9972592711	-0.2057629883	-4.3157610932	 0.106146
H	 0.9395971915	 1.4173448942	-3.5796708905	 0.106196
H	 2.8283918494	-0.9006198185	-2.9213885604	 0.099415
H	 3.1837486525	 0.8480224647	-2.8416036652	 0.118102
