14
gdb 24042	4.6893	1.07473	0.87903	1.5116	72.85	-0.2675	-0.0559	0.2116	1214.0978	0.103459	-395.798477	-395.791161	-395.790217	-395.831468	26.287	
N	-0.9292536322	-0.0038941148	-1.4316248921	-0.307203
C	-0.392865703	 0.4486548234	-0.51413417	 0.271751
C	 0.2970853922	 1.0276698124	 0.6341877841	-0.431565
C	 1.5640624718	 1.7960713066	 0.2934356075	 0.329392
N	 2.1917773881	 2.3234274163	 1.3498368757	-0.298987
C	 3.3075159884	 3.0049980831	 1.095838032	 0.071792
N	 3.8673470328	 3.2192278881	-0.0961560253	-0.244296
C	 3.2252414735	 2.6847031815	-1.136348976	 0.023659
C	 2.0509868684	 1.9513640674	-0.9994892873	-0.181364
H	-0.386761681	 1.6977999779	 1.1674307919	 0.183507
H	 0.5497895721	 0.2316766824	 1.3438745353	 0.183502
H	 3.8168351353	 3.433291076	 1.9557535253	 0.127795
H	 3.6662863691	 2.8479644878	-2.1169385309	 0.130165
H	 1.5439001644	 1.5243845018	-1.85581459	 0.141851
