20
gdb 98978	2.80317	0.91831	0.79965	2.3375	77.86	-0.2411	-0.0312	0.2098	1530.5088	0.168755	-440.346251	-440.335476	-440.334532	-440.384456	36.648	
C	-0.0192930974	 1.2960605456	-1.0202767018	-0.388544
C	 0.4366832839	 0.1992086087	-0.0385668844	-0.267029
C	 1.1982746497	-0.898045531	-0.7579130561	 0.383887
O	 2.4107842808	-0.9659675618	-0.7038975335	-0.324021
C	 0.3696122952	-1.9063767699	-1.5466981114	-0.415794
C	 0.8735468266	-2.2981218408	-2.9492754301	 0.394539
O	 0.0809983269	-2.4630051466	-3.859923942	-0.376331
N	 2.212070246	-2.4857446369	-3.0438461375	-0.299083
C	 2.8554336407	-2.8393992917	-4.2935039078	-0.331689
H	 0.8420416006	 1.7623072024	-1.507073859	 0.138318
H	-0.6747239191	 0.8966819996	-1.8002134054	 0.13843
H	-0.5703723876	 2.0743577508	-0.4859281409	 0.130883
H	 1.0980615248	 0.6217551552	 0.7220735836	 0.125092
H	-0.4389880597	-0.2338233157	 0.4597206779	 0.116788
H	 0.3494337002	-2.8220520234	-0.9390495233	 0.158212
H	-0.6638259361	-1.5785925087	-1.6620526099	 0.1367
H	 2.7671535272	-2.1931560865	-2.2493962317	 0.264724
H	 2.0770676605	-3.1309804609	-4.9993834578	 0.165069
H	 3.4158304897	-1.9961314219	-4.715165844	 0.125622
H	 3.5457759571	-3.6767170164	-4.1491094947	 0.124227
