16
gdb 124480	3.27253	1.25246	1.11876	2.2376	65.79	-0.2944	-0.0747	0.2197	1113.6654	0.121649	-471.154247	-471.145549	-471.144605	-471.187854	31.864	
C	-0.0944580509	 1.5959995725	 0.0586886717	-0.399154
C	 0.0255714981	 0.0737086116	 0.0324490949	 0.234595
C	 0.7956375585	-0.4579528834	 1.2538211451	-0.42624
O	-1.304853938	-0.434156013	 0.0189716056	-0.449668
C	 0.7161375134	-0.3964194834	-1.2285176119	 0.430636
N	 1.4251103867	 0.3075516351	-2.0591780543	-0.170033
O	 1.816500067	-0.5762312429	-3.0129477365	-0.139618
N	 1.3007813637	-1.8274629752	-2.7038653863	 0.045813
N	 0.6461020993	-1.72042964	-1.6375041488	-0.221438
H	 0.8901758451	 2.0675360221	 0.0363046123	 0.135302
H	-0.6704461092	 1.9459393197	-0.8005221917	 0.138921
H	-0.6139978528	 1.8946865358	 0.9722175051	 0.129388
H	 0.2572157373	-0.1777902054	 2.1629025959	 0.134902
H	 0.8764966837	-1.5491683125	 1.2176763426	 0.129237
H	 1.8070290709	-0.0430163634	 1.2978296312	 0.131283
H	-1.2587799326	-1.3964015775	-0.0320622649	 0.296074
