17
gdb 90553	4.23286	1.08987	0.98151	4.8197	69.51	-0.2416	-0.0282	0.2133	1196.4435	0.134361	-458.919362	-458.911043	-458.910098	-458.953021	30.307	
O	-0.1422294026	 1.5014365156	 0.3380548707	-0.419586
C	 0.0223025003	 0.1302222908	 0.1152243309	 0.137123
C	 0.3413727115	-0.8217580894	 1.3188015356	-0.303669
C	-0.8608355916	-1.7159252779	 0.9033577328	-0.105814
C	-2.1834783175	-1.3137281786	 1.5996847252	 0.040601
O	-2.3850312131	-0.2253335803	 0.6927504771	-0.273446
C	-1.2878719699	-0.6394071958	-0.1434571437	 0.099874
C	-3.2463886261	-2.389650983	 1.5118238268	 0.133955
O	-4.1216101647	-2.4344070059	 0.69048776	-0.230097
H	 0.7276690428	 1.9050154082	 0.417302345	 0.288327
H	 0.7176503439	-0.0725511918	-0.7144064796	 0.071215
H	 1.3200789153	-1.304616198	 1.2795024806	 0.104362
H	 0.2167731681	-0.3453759962	 2.2945990596	 0.111789
H	-0.6802967709	-2.7659413402	 0.6801149794	 0.089013
H	-2.0883039974	-0.9899482768	 2.6471226191	 0.096803
H	-1.6040988875	-0.8205335256	-1.1729446939	 0.090893
H	-3.1201495405	-3.1871344351	 2.2843235945	 0.068656
