18
gdb 7357	3.40616	1.26618	1.02628	3.7066	65.51	-0.2617	-0.029	0.2327	1176.4243	0.150397	-422.080484	-422.070859	-422.069915	-422.115399	33.307	
C	-0.8814449939	 1.2561543068	-0.4343532499	-0.230839
O	-1.3979583919	-0.0519424445	-0.3145926975	-0.22809
C	-0.5984434718	-0.8850557668	 0.4847614011	-0.15324
C	-1.1960747242	-2.2799667932	 0.5940896846	 0.327022
O	-0.7792153982	-3.0504234651	 1.4330321899	-0.330285
C	-2.2991468016	-2.7189932978	-0.3637232461	 0.067822
C	-1.7685535621	-2.7916253087	-1.8075428432	-0.407716
O	-2.8064205798	-3.9617536631	 0.0487131111	-0.442388
H	-1.57055584	 1.8197068514	-1.0665524752	 0.137324
H	-0.8063902437	 1.7514078625	 0.5454610965	 0.11478
H	 0.1160077199	 1.2569267605	-0.8998090131	 0.112729
H	 0.4200489834	-0.9875744627	 0.0696706232	 0.124439
H	-0.4855702117	-0.4895355096	 1.5065596011	 0.128879
H	-3.0925529911	-1.9589151025	-0.3230996754	 0.10569
H	-0.9287663875	-3.4908572139	-1.8702370818	 0.120365
H	-2.5676306707	-3.1629815033	-2.4536012514	 0.134349
H	-1.4542783772	-1.8072400371	-2.1609462946	 0.128823
H	-2.2107311679	-4.2627115026	 0.7532541309	 0.290334
