15
gdb 72787	2.50495	1.82326	1.35389	1.1072	67.24	-0.2301	-0.0476	0.1825	948.5604	0.112807	-453.915705	-453.907918	-453.906974	-453.948118	29.029	
O	-0.0923593204	 1.4411000978	 0.4406687496	-0.460863
C	-0.050414008	 0.0665780947	 0.1340923017	 0.247919
C	-1.4819467221	-0.4250797837	-0.2433389084	-0.236353
N	-1.0269955036	-0.4935397607	-1.6835445876	-0.350234
C	 0.2895729927	-0.4443372731	-1.2405211858	 0.281442
N	 1.3745583789	-1.0758335905	-1.4606523849	-0.294585
C	 2.1457317585	-0.9597035959	-0.2029094558	-0.278469
C	 1.0919624967	-0.6545241441	 0.91103323	 0.284181
O	 1.181818243	-0.8867054275	 2.0816753331	-0.278697
H	 0.8020898195	 1.8002185787	 0.4352492972	 0.293463
H	-1.7542061022	-1.3998714603	 0.1704134281	 0.132779
H	-2.2598339291	 0.3176076901	-0.0618138411	 0.141384
H	-1.3163796885	-1.2591179199	-2.2834567836	 0.245887
H	 2.6666706084	-1.8973836041	 0.0118774948	 0.142957
H	 2.9086699263	-0.1689000815	-0.2308288674	 0.129189
