21
gdb 106386	3.23551	1.44997	1.26077	1.0411	81.6	-0.2391	0.0934	0.3325	1088.4569	0.184173	-387.041308	-387.033614	-387.03267	-387.073304	31.624	
C	-0.0297985227	 1.3558274	 0.1232945739	-0.257848
O	 0.0376326672	-0.0440201161	-0.0411873509	-0.303531
C	 0.720968672	-0.4940963756	-1.1627220035	 0.454184
C	 0.3761341788	-0.0885980458	-2.6530313381	-0.282843
C	 1.7853837364	-0.7291431305	-2.8886350995	-0.048685
C	 2.1844662097	-0.1018197668	-1.5239543951	-0.308685
C	 1.4802369484	-2.2065611883	-2.5648989546	-0.029252
C	 1.9727662268	-2.8207886891	-1.2770580832	-0.316884
C	 0.6897567532	-2.0288386355	-1.2838005082	-0.080873
H	 0.9656371215	 1.8079148322	 0.2359530024	 0.109282
H	-0.5422442795	 1.8459481727	-0.7165035355	 0.109314
H	-0.6009224887	 1.538823714	 1.0364723686	 0.126537
H	-0.4860621641	-0.5730135771	-3.1192490264	 0.089963
H	 0.3570989488	 0.9905651141	-2.828826031	 0.088641
H	 2.361432235	-0.5140752814	-3.7873565529	 0.064721
H	 2.306126504	 0.978965887	-1.6169170174	 0.0949
H	 3.0170182876	-0.5119237878	-0.9519683945	 0.096098
H	 1.1394709007	-2.849802717	-3.3683968691	 0.085337
H	 1.8465234317	-3.8968594502	-1.2028050001	 0.107785
H	 2.8631339216	-2.4624899186	-0.7748839858	 0.112509
H	-0.2588813986	-2.5170621302	-1.0945106691	 0.089329
