14
gdb 25503	4.72878	0.98689	0.88019	2.0929	70.	-0.2612	-0.0627	0.1985	1250.7668	0.102021	-432.923619	-432.916063	-432.915119	-432.957085	26.245	
O	-0.3335807458	 0.0544030976	 0.1746862907	-0.22463
C	-0.055698725	 1.2096694705	 0.0047120165	 0.158372
C	 1.3535488466	 1.6979858696	-0.3340469056	-0.359961
C	 1.3444127989	 2.8081711463	-1.3452376576	 0.33878
N	 1.9656995098	 2.6048017786	-2.5120865128	-0.265456
C	 1.9106998965	 3.6331164542	-3.3574841651	 0.084167
N	 1.2948888763	 4.7961348176	-3.1423645437	-0.236138
C	 0.6979773527	 4.876073023	-1.9527368098	 0.082949
N	 0.6901267321	 3.9306279528	-1.0156529013	-0.269486
H	-0.8071186573	 2.0212538247	 0.1016390139	 0.106813
H	 1.7662606312	 2.0921534895	 0.6051127736	 0.156916
H	 1.9629687335	 0.8605715883	-0.6724016463	 0.15038
H	 2.4147810112	 3.5101564538	-4.3136406287	 0.139041
H	 0.1714987293	 5.8003833934	-1.7246417537	 0.138253
