20
gdb 10397	2.56875	1.89548	1.38927	2.0617	70.65	-0.2487	0.0798	0.3285	988.8403	0.176265	-386.116725	-386.107937	-386.106992	-386.149829	32.737	
C	-1.5624020548	-0.0516123726	-0.2494993591	-0.261339
O	-0.169121013	 0.1913552364	-0.1778330083	-0.300819
C	 0.6495134997	-0.658846072	-0.9740147219	 0.39072
C	 0.493343504	-0.289048226	-2.4494863184	-0.095849
O	 0.7484368705	 1.0858026452	-2.6553822395	-0.429967
C	 2.1204700311	-0.6375125313	-0.4976990317	-0.268362
C	 2.1601138327	-2.1813106595	-0.6680769023	-0.219703
C	 0.6056465421	-2.1894284559	-0.7002653822	-0.28337
H	-1.9900639819	 0.2085093263	-1.2277873697	 0.114942
H	-1.8036713108	-1.1013922949	-0.0341868743	 0.114003
H	-2.0302889932	 0.5780112501	 0.511200326	 0.13016
H	 1.2106467008	-0.853166916	-3.0553716835	 0.10505
H	-0.5140844471	-0.5696926011	-2.8003766347	 0.080778
H	 0.3634717203	 1.5375866734	-1.8935500117	 0.286395
H	 2.8126808774	-0.0282041874	-1.081639215	 0.112302
H	 2.1692077132	-0.3385733404	 0.5517870279	 0.108468
H	 2.5968403258	-2.4863589454	-1.6221241657	 0.10793
H	 2.6384498282	-2.7551612457	 0.1274228319	 0.103371
H	 0.1828588731	-2.3954033949	 0.2867233006	 0.109149
H	 0.1092245118	-2.8237568383	-1.4400934082	 0.096139
