19
gdb 31965	4.66152	0.88721	0.78897	2.8217	80.22	-0.1917	0.0454	0.2372	1498.6906	0.159731	-419.243491	-419.234131	-419.233187	-419.278532	33.541	
C	 0.236805154	 1.7519607964	-0.0779106751	-0.372597
C	-0.2650385899	 0.2982241638	-0.1376736426	-0.291357
C	 0.5247439476	-0.5747998323	-1.0583259172	 0.341019
N	 0.1125106672	-1.0770843231	-2.1959888975	-0.295959
C	 1.1736612077	-1.7985208526	-2.7183924796	-0.244447
C	 2.2414636586	-1.7182290718	-1.8643722718	 0.399414
N	 1.8311412813	-0.9399813616	-0.8093875995	-0.377835
O	 3.4981879952	-2.2046683319	-1.8457178	-0.262305
C	 3.8314474708	-3.0033251174	-2.9712037833	-0.249268
H	 1.2686113185	 1.8080066008	 0.2858152981	 0.106218
H	 0.2087621273	 2.2116227347	-1.0700291396	 0.132673
H	-0.3849946398	 2.3496920103	 0.5956027624	 0.115924
H	-0.2704425338	-0.1272209868	 0.8750848734	 0.10194
H	-1.2967351673	 0.2734345517	-0.4975847386	 0.133588
H	 1.0979020359	-2.3210298085	-3.6576015043	 0.101317
H	 2.3989587071	-0.7065228593	-0.0121555499	 0.263839
H	 4.8636302507	-3.3253611707	-2.8291506312	 0.136763
H	 3.1756096947	-3.8804281067	-3.0368036214	 0.130551
H	 3.7486767144	-2.4250433448	-3.8999229722	 0.130524
