18
gdb 37565	3.835	1.63897	1.41704	1.6067	75.68	-0.2386	0.0654	0.304	938.6088	0.149796	-401.817861	-401.811321	-401.810376	-401.848676	26.81	
C	-0.0835809054	 1.5579719534	-0.0563573313	-0.19327
C	 1.4151500887	 1.2980412564	 0.0049075671	-0.117849
C	 1.1733575334	 0.1222348338	 0.9832966788	-0.043708
C	 1.9237884936	-0.9199513285	 0.1366021611	-0.070951
C	 3.3127828838	-0.8492860091	-0.4712228376	-0.109737
O	 3.065750797	-0.782925746	-1.9069147813	-0.288381
C	 1.7254681439	-0.3347222083	-2.2104948092	-0.217605
C	 1.2040355878	-0.0069346856	-0.8388005638	 0.374832
N	-0.0842600126	 0.0323379188	 0.022554344	-0.226322
H	-0.5563266383	 2.0328591837	 0.8093427506	 0.102228
H	-0.5109772373	 1.9452562398	-0.986629905	 0.104481
H	 2.2602572653	 1.9922083142	-0.0165407129	 0.076422
H	 1.00431447	 0.1684890735	 2.0608172854	 0.087027
H	 1.5152041419	-1.9327982194	 0.1947073435	 0.092581
H	 3.8733757162	 0.039351086	-0.1517436545	 0.098741
H	 3.931263424	-1.7329651171	-0.2968489095	 0.110714
H	 1.7826301301	 0.5196099927	-2.8937518999	 0.107384
H	 1.1611709678	-1.1436081684	-2.6922527754	 0.113415
