17
gdb 54037	2.18556	1.43782	1.02055	3.1317	70.11	-0.2468	-0.0317	0.2152	1180.9983	0.134222	-455.149092	-455.139859	-455.138914	-455.183839	32.978	
N	 0.8235894794	-0.1989714828	 0.6049132131	-0.513034
C	-0.2561001231	 0.2991936707	-0.0391991535	 0.376679
O	-0.3871066055	 1.4491323277	-0.4107268031	-0.36816
C	-1.350186823	-0.7498161526	-0.3342502857	-0.171272
C	-1.3443896583	-0.9862897645	-1.8473740388	 0.155299
O	-1.3780211459	-2.0699703478	-2.3646275935	-0.238704
N	-1.1739987834	-1.9759605822	 0.4135320169	-0.075038
C	-1.9741486285	-2.1385215004	 1.6313682629	-0.234845
C	-2.2817688633	-2.9259985099	 0.4084079646	-0.200263
H	 1.6109852533	 0.4023170758	 0.7801879024	 0.264625
H	 0.8588975464	-1.1842298133	 0.8139240222	 0.275709
H	-2.3038071067	-0.2295946151	-0.1266201347	 0.111075
H	-1.3175125199	-0.042549084	-2.4295123332	 0.116792
H	-1.4603105389	-2.5978465893	 2.4701662773	 0.12342
H	-2.6562076037	-1.3341391111	 1.9002562919	 0.122905
H	-3.1753753915	-2.6575138901	-0.1488707508	 0.12468
H	-1.9987351276	-3.9706691009	 0.3332282021	 0.13013
