19
gdb 67372	2.2273	1.90078	1.8956	1.0616	78.79	-0.2332	0.0181	0.2513	914.6863	0.161359	-385.873359	-385.866289	-385.865345	-385.904251	29.74	
O	-0.0630086872	 1.3911587047	 0.0074013396	-0.490947
C	 0.0135465498	 0.0046587602	 0.000056299	 0.420174
C	-1.270227694	-0.8720911601	 0.0705919957	-0.066848
C	-0.8638880483	-1.5459215801	-1.2669990523	-0.231721
C	 0.5162669063	-0.7812114576	-1.2632056464	-0.140843
C	 1.6983170168	-1.5668091005	-0.7685319694	-0.087556
C	 1.7736934999	-1.569720762	 0.5674086568	-0.087569
C	 0.6549911205	-0.7865486636	 1.1953171735	-0.140869
C	-0.7161733994	-1.5515712736	 1.3510706699	-0.231718
H	 0.8336425508	 1.7433223759	-0.0417093973	 0.279327
H	-2.2708845432	-0.4441029031	 0.1279710615	 0.070552
H	-0.8012623612	-2.6371199423	-1.2675384292	 0.094623
H	-1.5031113037	-1.2291802781	-2.0950964748	 0.102076
H	 0.6980452225	-0.1947957206	-2.167694283	 0.067004
H	 2.3758906351	-2.0954891341	-1.4308683098	 0.090311
H	 2.5213295029	-2.1011091899	 1.1470327605	 0.09031
H	 0.9375370718	-0.2040140142	 2.0761444785	 0.066991
H	-1.2580940042	-1.2385163291	 2.2471718319	 0.102076
H	-0.6541802149	-2.6427492618	 1.3399006752	 0.094627
