18
gdb 104291	2.11778	1.42128	1.10801	1.8602	68.45	-0.2362	-0.0276	0.2085	1155.2703	0.145506	-476.192472	-476.182965	-476.182021	-476.227348	34.264	
O	-0.1907429467	 1.3914443237	 0.2987061887	-0.440684
C	-0.0341226745	-0.0232188875	 0.1916298195	-0.158957
C	-1.4356680894	-0.5774119836	-0.0288614181	 0.406264
O	-2.2924543579	-0.1433309673	 0.9893086753	-0.479373
C	-1.9700550251	-0.4408124966	-1.4883479628	-0.217852
N	-1.642763113	-1.8702645216	-1.7264488487	-0.337063
C	-1.5095099038	-2.1172181621	-0.2756754275	-0.11777
C	-0.3288760902	-2.9888042862	 0.0940255887	 0.145959
O	 0.1710744585	-3.0301306507	 1.1904440695	-0.25213
H	 0.6012649742	 1.7573980026	 0.7015088344	 0.298592
H	 0.6206979241	-0.2937845131	-0.6490387819	 0.10505
H	 0.3803191986	-0.4504756029	 1.1126221743	 0.12654
H	-2.0088808939	 0.7564857068	 1.2030328424	 0.28824
H	-3.0419770858	-0.2130590861	-1.4695936029	 0.104053
H	-1.4561423131	 0.2565692973	-2.1574047466	 0.109999
H	-2.368471925	-2.4025325883	-2.1925036558	 0.225291
H	-2.4070728642	-2.5017801822	 0.2307792861	 0.11137
H	 0.0667484871	-3.5891508022	-0.7574675846	 0.082471
