16
gdb 65821	2.59808	1.33061	1.19806	3.4341	68.86	-0.2631	-0.0426	0.2205	1094.0761	0.122741	-437.921284	-437.912812	-437.911868	-437.954581	31.204	
C	-0.0364195093	 1.5298642525	 0.0703320493	-0.433424
C	 0.0369067066	 0.0092431423	-0.0313315323	 0.202127
C	 0.8248705478	-0.5309446591	-1.2424215123	-0.379578
C	 1.4786213313	-1.8023325519	-0.6909157394	 0.386461
O	 2.037116231	-2.6606015142	-1.314501985	-0.284244
C	 1.2767302768	-1.760355721	 0.8260631681	-0.197912
O	 0.7555026962	-0.4714374486	 1.1127280234	-0.266981
C	-1.3332672389	-0.5679457852	-0.0220116159	 0.267485
N	-2.3933222512	-1.0278380645	-0.0117855656	-0.329507
H	 0.9784691755	 1.9348180235	 0.0756286749	 0.135523
H	-0.5883312851	 1.9462422571	-0.77584505	 0.142778
H	-0.5379935552	 1.8203930996	 0.9959821853	 0.152817
H	 0.2234175678	-0.7418845113	-2.1271403964	 0.159761
H	 1.6130448262	 0.1783643901	-1.517957392	 0.147547
H	 0.5822695575	-2.5609748886	 1.122757131	 0.14682
H	 2.2171609929	-1.8944569208	 1.366195657	 0.150328
