21
gdb 108255	2.47686	1.33786	1.30738	2.1747	78.1	-0.237	0.0609	0.2979	1149.9033	0.180784	-424.200205	-424.190685	-424.18974	-424.234638	35.474	
C	-0.1442057186	 1.5782766958	-0.1402753272	-0.388158
C	-0.1382046634	 0.0443164016	-0.1262679334	-0.260592
C	 0.793333289	-0.5316295426	-1.1626836727	 0.42313
C	 2.3353432171	-0.4319675299	-0.9952388251	-0.267682
C	 2.4682785134	-1.9496497903	-1.345916061	-0.299307
C	 0.9320027888	-2.0377580758	-1.5405965073	 0.280009
O	 0.220029419	-3.0266580569	-0.858490162	-0.479709
C	 0.4275932409	-1.5970560157	-2.9293886226	-0.129188
O	 0.4031859953	-0.2085321973	-2.5255635077	-0.336648
H	 0.8447850523	 1.9839818503	 0.0986145934	 0.114408
H	-0.4297625831	 1.9493403054	-1.1284499766	 0.137339
H	-0.853282541	 1.9736521756	 0.5928379758	 0.110875
H	 0.1604768005	-0.3289337066	 0.8608769448	 0.098736
H	-1.148434475	-0.3364824413	-0.3147838021	 0.107376
H	 2.7988848323	 0.2597080378	-1.7003598859	 0.111731
H	 2.6647337113	-0.1872658702	 0.0177702778	 0.101898
H	 3.0817331418	-2.2029958419	-2.2147047082	 0.097747
H	 2.7954191726	-2.5500857709	-0.493176233	 0.103877
H	 0.6127957627	-3.8827591738	-1.0603768804	 0.282168
H	 1.0873769668	-1.7706904111	-3.7893615602	 0.090544
H	-0.5788808427	-1.972024832	-3.1545320763	 0.101445
