19
gdb 108607	2.79329	1.21984	0.91394	5.0747	79.83	-0.261	-0.0299	0.2311	1304.6755	0.158524	-423.096312	-423.086898	-423.085954	-423.131519	33.429	
C	-0.2597317123	 1.6103265847	-0.1210723741	-0.376862
C	 0.0342249439	 0.1022397201	 0.0000709857	-0.297096
C	 0.7853234566	-0.4504424924	-1.170929187	 0.197507
C	 2.0481771411	-0.8918942776	-1.2543580054	 0.029472
C	 3.1319624227	-0.996471305	-0.2335442261	-0.496647
C	 2.2991631727	-1.332169068	-2.6504465125	 0.411985
O	 3.2992544067	-1.7889973665	-3.1308649089	-0.352687
O	 1.1517813702	-1.1363041856	-3.3788045299	-0.232877
C	 0.1491263539	-0.5877354908	-2.5312833367	-0.171985
H	 0.6682553291	 2.183763481	-0.2030026199	 0.130248
H	-0.8704746552	 1.8327964512	-1.0013619133	 0.124344
H	-0.8034607779	 1.9647428433	 0.7591850026	 0.124572
H	 0.5986611973	-0.0853795763	 0.9186456761	 0.11671
H	-0.9165719362	-0.437989429	 0.1036591232	 0.115077
H	 3.4964530856	-2.0269952947	-0.1674753872	 0.148806
H	 3.9924018511	-0.383703632	-0.5236733718	 0.14774
H	 2.7989425496	-0.6785114641	 0.7569349579	 0.122317
H	-0.7184344975	-1.2612706432	-2.5168735391	 0.128629
H	-0.1816634514	 0.3725646148	-2.9470579936	 0.130748
