13
gdb 21106	3.87539	1.95849	1.31179	4.2195	69.53	-0.2469	-0.0347	0.2123	866.9523	0.0958	-357.613624	-357.606381	-357.605437	-357.645378	25.829	
C	-0.0338686271	 1.4368632875	 0.0408896588	-0.334719
N	-0.0117574266	-0.0123260893	 0.0654998869	-0.044922
N	-0.0317615145	-0.7159037242	-1.0781448661	-0.134744
N	-0.0044950392	-1.9850449366	-0.7704762063	-0.177842
C	 0.0334962501	-2.1108726004	 0.5763795582	-0.200853
C	 0.0294171835	-0.847725745	 1.1451287101	 0.231788
C	 0.058060609	-0.3985951874	 2.4774285873	 0.309785
C	 0.082678536	-0.0026627725	 3.6144333026	-0.472864
H	 0.8641591114	 1.8402381752	 0.5155915045	 0.155758
H	-0.067988895	 1.738087742	-1.0054343253	 0.17228
H	-0.915090989	 1.8138204427	 0.566077942	 0.155778
H	 0.0610487433	-3.0697942339	 1.066975702	 0.133661
H	 0.105601308	 0.3356231119	 4.6209408751	 0.206893
