22
gdb 87455	2.73835	1.3483	1.22348	1.6261	87.4	-0.2329	0.0733	0.3062	1178.1039	0.194117	-367.144954	-367.136131	-367.135187	-367.177895	34.84	
C	-0.0462953284	 1.529743791	-0.1095337607	-0.390392
C	-0.0125232532	 0.0286528288	 0.0469825739	-0.137346
N	 1.3308531955	-0.6210111791	-0.1034831136	-0.43417
C	 0.6392760823	-0.6574134637	 1.1697970287	 0.439249
C	 1.1707994768	-0.2536607636	 2.5547759047	-0.129697
C	-0.1897434039	-0.7675363526	 3.1138711257	-0.253775
C	 0.244449446	-1.8492289151	 2.0701638352	 0.231696
C	-0.4845198282	-3.1045675252	 1.6745639391	-0.519735
C	 1.6857265759	-1.7199857743	 2.6748087875	-0.259171
H	 0.8235320485	 1.9841580584	 0.3717903767	 0.125183
H	-0.0336055791	 1.8130541376	-1.1676325862	 0.118205
H	-0.9518446011	 1.9501509147	 0.3419575948	 0.11281
H	-0.8479677842	-0.4968342217	-0.4169534411	 0.07868
H	 1.2385268059	-1.5079659473	-0.5953821297	 0.223397
H	 1.7000639386	 0.6573965583	 2.8304158948	 0.075984
H	-0.1866217231	-1.0872618819	 4.1598338388	 0.08668
H	-1.0809207758	-0.18166066	 2.8729392557	 0.089489
H	-1.4901125162	-2.8780999865	 1.3027330362	 0.12023
H	 0.0535653012	-3.6425959329	 0.8851241832	 0.115604
H	-0.5885706207	-3.785874232	 2.5256211723	 0.124171
H	 2.518536736	-2.0002940107	 2.0256095962	 0.098665
H	 1.8144103375	-2.1047828124	 3.6909065678	 0.084244
