20
gdb 43664	5.24322	0.75736	0.7271	2.8356	81.68	-0.258	0.0308	0.2888	1603.9625	0.171236	-403.140041	-403.131337	-403.130393	-403.174437	32.605	
N	 0.230928219	 0.8981207007	 1.0717173807	-0.540302
C	 0.0405810957	-0.0404764674	 0.2627272376	 0.440574
C	-1.1813143441	-0.7086471148	-0.3307378701	-0.386533
C	-0.1483841127	-1.5977237336	-1.0566963745	 0.141115
C	-0.0604492942	-1.5167108972	-2.5689486297	-0.237288
C	 1.1868519882	-2.1762893842	-3.117688151	 0.036017
C	 1.206655657	-3.6599573667	-3.3961093621	-0.258735
C	 1.2275590758	-2.6735481712	-4.538616544	-0.277549
O	 0.9401945399	-0.8464289982	-0.4039305703	-0.2669
H	 1.2284522916	 1.0526703476	 1.2289097823	 0.226342
H	-1.8280151251	-1.2070091411	 0.3928080656	 0.136524
H	-1.7832993431	-0.0657616546	-0.9763627657	 0.134463
H	-0.1179514921	-2.6361286869	-0.7128819681	 0.095423
H	-0.954132392	-1.9976859833	-2.989294815	 0.100331
H	-0.0971158516	-0.460855337	-2.8680053418	 0.105889
H	 2.1088244809	-1.7525267063	-2.7307656504	 0.102022
H	 2.1112608528	-4.2158278046	-3.1766705354	 0.115626
H	 0.2922061224	-4.2215703733	-3.2315142772	 0.107826
H	 0.3274474364	-2.5734994216	-5.1368107044	 0.110174
H	 2.1471056151	-2.5545784364	-5.1006466866	 0.114981
