21
gdb 64390	2.19359	1.52403	1.13346	1.5195	83.79	-0.2553	0.0548	0.3102	1175.2453	0.181279	-387.077117	-387.067627	-387.066683	-387.111747	36.936	
C	-0.3177778049	 1.5364873366	-0.0995291996	-0.450973
C	 0.0333151325	 0.0534737456	-0.0482324815	 0.378133
O	-1.1688467001	-0.7330357289	-0.0260056236	-0.475212
C	 0.9339666689	-0.4186647992	-1.207097482	-0.229115
C	 1.4926749889	-1.756569847	-0.7114016014	-0.207852
C	 1.8742621059	-1.4453700777	 0.7453254199	-0.223072
C	 0.8014903572	-0.4206427746	 1.2445514049	-0.181922
C	 1.3852726456	 0.642489372	 2.0486343429	 0.330078
C	 1.8916926336	 1.5028830142	 2.7198105121	-0.477586
H	 0.5768597774	 2.1620041953	-0.056954054	 0.12797
H	-0.8484244896	 1.7639157739	-1.0322990725	 0.096013
H	-0.9658207892	 1.8071768483	 0.7383155288	 0.12797
H	-1.6720734186	-0.516079	-0.8185377789	 0.274434
H	 0.3772036663	-0.4870953377	-2.1481012939	 0.081827
H	 1.7482309923	 0.3015269798	-1.3569940433	 0.099611
H	 0.7039378122	-2.5141079467	-0.7466562172	 0.110739
H	 2.3392137955	-2.1205674211	-1.2995820701	 0.092289
H	 1.9141772912	-2.3312368043	 1.3833645582	 0.105062
H	 2.8611889134	-0.9744687913	 0.7808442721	 0.109612
H	 0.0492543884	-0.9364613193	 1.8493004098	 0.120397
H	 2.3295747931	 2.263034332	 3.3177815693	 0.191597
