23
gdb 95625	2.11096	1.48657	1.09522	2.9409	85.17	-0.2299	-0.0078	0.2221	1236.3242	0.20664	-388.339938	-388.330587	-388.329643	-388.373682	36.135	
C	-0.0553472344	 1.5659821407	-0.0416357714	-0.415739
C	 0.0483746789	 0.0366867739	-0.0332743654	 0.02327
C	 0.6625908943	-0.5072166745	-1.334114552	-0.190353
C	 0.6633528142	-2.0404447842	-1.3602545038	-0.219029
C	 1.3949170524	-2.6261639367	-0.1372009307	-0.291041
C	 0.8710225599	-2.0366457238	 1.1659820867	 0.377792
O	 0.5462664271	-2.7299065073	 2.1029840522	-0.319899
C	 0.784032244	-0.5092835245	 1.2235344359	-0.065776
C	 2.1910926256	 0.0825926955	 1.4508255272	-0.417783
H	 0.9211755057	 2.0386429939	-0.1894077405	 0.117954
H	-0.7074809484	 1.9020317267	-0.8544751528	 0.113743
H	-0.4719896674	 1.9435745878	 0.898373036	 0.114528
H	-0.9770157596	-0.3583588101	 0.0227177827	 0.078896
H	 0.0990931382	-0.1197280161	-2.1908226699	 0.095149
H	 1.6885257358	-0.1324238914	-1.4494391981	 0.095507
H	-0.3729145043	-2.4026201202	-1.3649293106	 0.106569
H	 1.1264987764	-2.4115364603	-2.2806490774	 0.099831
H	 1.304412287	-3.7135434859	-0.0824249093	 0.116354
H	 2.4648872437	-2.3863139176	-0.2111009337	 0.11641
H	 0.1812915533	-0.2813513348	 2.1092816291	 0.087046
H	 2.8548292807	-0.0693985139	 0.5945059234	 0.119619
H	 2.1330495271	 1.1576328873	 1.6399873121	 0.125421
H	 2.6591807397	-0.3823521545	 2.3237400905	 0.131529
