14
gdb 10382	2.67729	2.04013	1.43166	2.9626	62.74	-0.254	-0.0533	0.2007	872.5226	0.107066	-378.708634	-378.701024	-378.700079	-378.741026	26.676	
O	-0.1292831973	 0.0159448513	-0.2775162927	-0.219274
C	-0.0287696035	 1.1706509098	 0.0253221377	 0.125525
C	 1.2935172489	 1.9477156515	 0.0128183557	 0.054897
C	 2.4816457046	 1.1526239039	-0.5995675328	-0.201499
N	 2.2062593413	 1.7986857448	-1.9030331407	-0.301506
C	 1.4015405786	 2.8576061972	-1.2667318228	-0.205916
C	 1.484187488	 2.6122018434	 1.2884756086	 0.218194
N	 1.6183661937	 3.1396692186	 2.3089507711	-0.326101
H	-0.9047357508	 1.7839225529	 0.3253165044	 0.109556
H	 3.4363160616	 1.4236838937	-0.13399192	 0.117107
H	 2.3510340588	 0.0682426376	-0.5952850841	 0.145354
H	 3.0221614611	 2.1239142816	-2.4076732166	 0.233329
H	 0.4596152119	 3.0925715859	-1.7747877315	 0.126419
H	 1.9307819832	 3.7917790177	-1.0411829463	 0.123914
