22
gdb 107198	3.62907	1.20999	1.08322	1.4867	84.74	-0.2171	0.0797	0.2968	1220.9191	0.195798	-367.181004	-367.172737	-367.171792	-367.213595	33.201	
C	 0.2152324638	 1.5057929743	-0.2334335088	-0.376379
C	-0.0918837324	 0.0379073301	 0.0909766539	-0.278473
C	 0.6440211244	-0.473633126	 1.3127859701	 0.380299
C	 2.0542785021	-0.9912531318	 1.1670391188	-0.348629
C	 0.941938801	-1.9450666254	 1.5401470502	-0.107619
C	 0.6513487278	-2.2456418868	 2.9914903736	-0.024298
C	 1.4500061013	-1.6128228988	 4.0723447234	-0.254694
N	 0.1650812767	-1.023458948	 3.6722274221	-0.095261
C	 0.2371208514	 0.0837308631	 2.6888392335	-0.251808
H	 1.286042463	 1.6529123345	-0.4090780565	 0.117298
H	-0.3223101869	 1.8330631342	-1.1288193353	 0.111486
H	-0.07943877	 2.1660253086	 0.5892894614	 0.119886
H	-1.1730721265	-0.0854150308	 0.2405682487	 0.097746
H	 0.1724344156	-0.5871284894	-0.7710314678	 0.093019
H	 2.4429958864	-1.0735691852	 0.1557843515	 0.10695
H	 2.8118298969	-0.7293111731	 1.8966415714	 0.110051
H	 0.6419274125	-2.6914757635	 0.8128619278	 0.083665
H	 0.10487304	-3.1627327463	 3.1958168015	 0.087509
H	 1.4530092801	-2.0452850293	 5.0702749996	 0.110658
H	 2.3729763771	-1.1005157292	 3.8156106035	 0.108389
H	 0.9068962306	 0.871127246	 3.0535545386	 0.104033
H	-0.7649460449	 0.521329023	 2.6147172285	 0.106172
