17
gdb 33172	3.31464	1.05801	0.85469	3.5972	70.06	-0.2025	0.0416	0.2441	1313.6318	0.13662	-455.164423	-455.155464	-455.15452	-455.198885	32.111	
O	 0.107190477	 1.4167940038	-0.0868447356	-0.406899
C	 0.0865307375	 0.0031340415	-0.0295528913	-0.070623
C	-1.3533559149	-0.5329874989	-0.0194615551	-0.195585
N	-1.4096606976	-1.9831664919	-0.0064831512	-0.042397
C	-1.6369843131	-2.8328211497	-1.0657774943	-0.004983
N	-1.5901816555	-4.0903823726	-0.7113971751	-0.265172
C	-1.3130678416	-4.08775094	 0.6422025402	-0.212402
C	-1.199545927	-2.7954321167	 1.0808100166	 0.324358
O	-0.9444415794	-2.2018913913	 2.2757756293	-0.445246
H	-0.1548823634	 1.7557053303	 0.7749341003	 0.288918
H	 0.6011462305	-0.3531030298	-0.9276316938	 0.124662
H	 0.6299855762	-0.3854480137	 0.8425541264	 0.113314
H	-1.8836071124	-0.1520353341	 0.8602643714	 0.12184
H	-1.8815906448	-0.1764649293	-0.9073815736	 0.131608
H	-1.8372177376	-2.451780435	-2.0562837446	 0.126265
H	-1.2169894637	-5.00020073	 1.2104148354	 0.099518
H	-0.8688222101	-2.8882760526	 2.945717095	 0.312823
