16
gdb 57034	2.54012	1.33041	0.91539	1.969	71.59	-0.2647	0.0193	0.2841	1217.6528	0.122489	-437.834732	-437.825726	-437.824781	-437.869036	32.522	
O	-0.0226450509	 1.4404076611	-0.0014629071	-0.419811
C	 0.055159829	 0.017257086	-0.0486207974	-0.068001
C	 0.7402913919	-0.4538058434	-1.250431989	 0.305511
C	 1.3477078332	-0.7931888757	-2.2298796788	-0.431019
C	 0.7201326759	-0.5171886951	 1.2319093885	-0.1423
C	-0.0170692154	-0.1892115615	 2.5450043668	-0.104246
O	-0.2329944041	-1.6165847802	 2.7864034512	-0.253316
C	 0.4224471949	-1.9563198336	 1.6199928415	 0.426184
N	 0.6489723553	-3.0752666846	 1.1049210902	-0.532867
H	 0.8296216108	 1.7880227784	-0.2873342903	 0.289188
H	-0.9870359555	-0.3246880412	-0.065380212	 0.127308
H	 1.8675542563	-1.1159411991	-3.0982566822	 0.206947
H	 1.7853990477	-0.2749257436	 1.2290565953	 0.110849
H	 0.5814109158	 0.2562636871	 3.3421231826	 0.122075
H	-0.9646849485	 0.3424429894	 2.4350801347	 0.133463
H	 0.2674971737	-3.831535014	 1.6762408459	 0.230035
