23
gdb 122749	7.54062	0.40158	0.39711	1.0254	93.84	-0.2426	0.061	0.3036	2849.9589	0.202855	-388.268809	-388.257054	-388.25611	-388.308918	39.722	
C	 0.1650314515	 1.4817318035	-0.0093786166	-0.384485
C	 0.3515606521	-0.0247516804	-0.0739112878	-0.028989
O	 0.5370806201	-0.5127728104	 1.2391115809	-0.23981
C	 0.7202806317	-1.9080886358	 1.2963015061	-0.042009
C	 0.9065768913	-2.29512395	 2.7673288621	-0.351809
C	 1.1062968248	-3.7282958518	 2.9443825623	 0.016835
C	 1.261624598	-4.9172966461	 3.060508416	 0.094023
C	 1.4791993319	-6.351733749	 3.2206578657	-0.312596
C	 2.9500652815	-6.7140387719	 3.4957707149	-0.362939
H	 1.0430491438	 1.9580397436	 0.4360436692	 0.126422
H	 0.0185139212	 1.8915765252	-1.0131677737	 0.11414
H	-0.7072450577	 1.734258668	 0.6001652966	 0.126471
H	-0.5276952761	-0.5045127465	-0.5368478469	 0.085549
H	 1.2226423324	-0.2807658937	-0.7010143599	 0.085447
H	-0.149578994	-2.4377125358	 0.8748490415	 0.094253
H	 1.6030737219	-2.2143612691	 0.7117541175	 0.093856
H	 1.761129039	-1.7353588955	 3.1668262442	 0.133405
H	 0.0270718721	-1.956540968	 3.3286021682	 0.133464
H	 0.8513232936	-6.7266422035	 4.0394065262	 0.126914
H	 1.1369607363	-6.8751482312	 2.3183953313	 0.125939
H	 3.5915232929	-6.3834381835	 2.6742849182	 0.126202
H	 3.3031714532	-6.2335396469	 4.4122654623	 0.127475
H	 3.0631637886	-7.7966168412	 3.6079388717	 0.112243
