20
gdb 96030	3.04007	1.05466	0.84631	2.6659	78.9	-0.255	0.0329	0.2879	1363.0532	0.171629	-403.176374	-403.167274	-403.16633	-403.211072	33.284	
C	 0.2207346978	 1.5651835666	-0.3177598824	-0.397821
C	 0.0053892182	 0.0935312718	 0.0311896542	 0.126479
O	 0.3696131544	-0.700401549	-1.1042447674	-0.27436
C	 1.3854078611	-1.6393320175	-0.7620492943	-0.073325
C	 2.0536126984	-1.0858402005	 0.4951226105	-0.23881
C	 0.8466377884	-0.4637024782	 1.213314225	-0.012858
C	 1.1874700018	 0.5581007605	 2.3119173348	-0.381319
C	 1.9197095383	-0.0513111967	 3.4212823033	 0.268521
N	 2.4973773307	-0.5497723216	 4.2892009005	-0.308042
H	 1.2806140793	 1.7922841681	-0.4717496529	 0.117591
H	-0.3054205744	 1.7893756392	-1.2491799895	 0.132717
H	-0.1732324329	 2.2271058337	 0.4606637202	 0.11098
H	-1.06320121	-0.0655265061	 0.2326640158	 0.080265
H	 0.9430809355	-2.628351326	-0.5643989792	 0.095668
H	 2.0637991772	-1.7366253408	-1.6150324014	 0.110541
H	 2.5606011507	-1.8485217601	 1.0898711857	 0.125278
H	 2.786383324	-0.313655935	 0.232975956	 0.108585
H	 0.2736643745	-1.2735218012	 1.6791017321	 0.101347
H	 1.7933646081	 1.3753422715	 1.906624129	 0.154686
H	 0.2731407689	 1.0107567713	 2.71327238	 0.153875
