21
gdb 106704	2.41911	1.47375	1.18502	1.2223	82.54	-0.2421	0.0786	0.3207	1162.06	0.181904	-387.047677	-387.038763	-387.037819	-387.081122	34.759	
C	 0.1805349335	 1.4526130043	 0.2657147369	-0.375724
C	-0.1476149224	 0.0011646987	-0.1099088574	-0.280932
C	 0.5737355967	-0.4707707366	-1.3444233522	 0.299631
C	 2.017645658	-0.948465866	-1.3206404512	-0.404211
C	 0.9308612868	-1.8998221241	-1.7624392435	 0.333545
O	 0.6155765274	-3.0418071159	-1.0397610315	-0.469922
C	 0.5022753396	-1.6258113726	-3.1829172587	-0.119742
C	-0.9188485768	-1.124528276	-3.2234341042	-0.298525
C	 0.1665120214	-0.1814928712	-2.7759409788	-0.103239
H	 1.2505394275	 1.5750693292	 0.4637146144	 0.115301
H	-0.0876047176	 2.1406998334	-0.5432189545	 0.115528
H	-0.3667949046	 1.7624369327	 1.1615757164	 0.108929
H	 0.1035583477	-0.6646109079	 0.7246573957	 0.103753
H	-1.2294247334	-0.0996496333	-0.2655016582	 0.097652
H	 2.747711211	-0.5608154244	-2.026821273	 0.099453
H	 2.4099179252	-1.1507334643	-0.3274366542	 0.106813
H	 1.3468824749	-3.6636053675	-1.1181132552	 0.284241
H	 1.0242863934	-1.9469499714	-4.0779917143	 0.080007
H	-1.319885269	-0.940602569	-4.2159286269	 0.106615
H	-1.6456122101	-1.5025886631	-2.5099636322	 0.117507
H	 0.4198050609	 0.7112022649	-3.3369077173	 0.083317
