19
gdb 57370	2.13494	1.575	1.22236	1.3603	77.11	-0.2606	0.0176	0.2782	1114.8532	0.154879	-422.97612	-422.966246	-422.965302	-423.010063	37.75	
C	-0.2871284092	 1.4779664123	-0.0511007151	-0.430469
C	 0.0504955333	-0.0138146685	 0.0891797761	 0.243364
C	 0.9346229786	-0.2831739868	 1.3058938785	-0.405474
O	-1.1412846746	-0.7642145675	 0.277815532	-0.462936
C	 0.742042545	-0.5152172273	-1.2015547236	 0.206636
C	 0.5314236578	-1.9067182856	-1.6442444996	-0.22521
O	-0.1949737839	-0.8328584392	-2.2547151358	-0.300359
C	 1.9364967287	 0.1778455316	-1.6198527647	 0.262457
C	 2.9389936685	 0.7606042823	-1.9373888086	-0.379346
H	 0.6147944164	 2.0853969188	-0.1609692817	 0.127828
H	-0.9177100289	 1.645273545	-0.9307568197	 0.121142
H	-0.8345745671	 1.8099268502	 0.8347350294	 0.122047
H	 0.431014547	 0.0665721817	 2.2111514709	 0.125871
H	 1.1225172911	-1.355235108	 1.410667466	 0.12123
H	 1.8921446254	 0.2353102851	 1.2141487159	 0.127726
H	-1.6254360062	-0.7146646504	-0.5574585828	 0.286951
H	 1.2783947087	-2.3760575632	-2.2801200593	 0.126143
H	-0.0608751048	-2.5638416307	-1.0137014944	 0.134266
H	 3.8222263342	 1.2740332801	-2.2284886834	 0.198134
