19
gdb 34111	3.39337	1.45442	1.35704	0.8567	85.95	-0.2485	0.0469	0.2954	1022.9113	0.161142	-348.693024	-348.685994	-348.68505	-348.724087	29.861	
C	 0.0564731368	-1.1638040752	-0.0589802118	-0.335958
C	 0.0331653503	 0.0390997992	-0.0267803402	 0.024622
C	 0.015877505	 1.4756315297	 0.0218248238	 0.264934
C	-0.4134197987	 2.2584531771	 1.3043255571	-0.276627
C	 0.4070431067	 3.3928562516	 0.6822633992	-0.050221
C	-0.0248704218	 3.5906753436	-0.8386004628	-0.049276
C	 1.4200357899	 3.1996594097	-1.2497068947	-0.241166
C	 1.3656013422	 2.3518337833	 0.025268524	-0.06029
C	-0.7716204501	 2.2608485302	-1.0631195469	-0.254472
H	 0.07472335	-2.2248095107	-0.0877459369	 0.174865
H	-1.4868321084	 2.3798360944	 1.4800849264	 0.094691
H	 0.0709767341	 1.866611706	 2.2025792743	 0.106115
H	 0.7593071649	 4.2646746895	 1.2308664789	 0.070217
H	-0.495788167	 4.5077292327	-1.1909983454	 0.064191
H	 1.5671167456	 2.7193879452	-2.2224724421	 0.093707
H	 2.1295283915	 4.024679702	-1.1331503771	 0.098357
H	 2.2278879219	 1.9153583779	 0.5266849629	 0.07502
H	-0.6350956562	 1.8652508611	-2.0726662905	 0.103388
H	-1.8410449367	 2.2933375926	-0.8394179284	 0.097902
