7
gdb 17	25.77385	22.12109	14.18066	1.7675	24.04	-0.2682	0.1042	0.3724	129.891	0.057289	-153.742562	-153.73941	-153.738466	-153.766642	9.176	
C	 0.0153771978	 1.4176438003	 0.0095628663	-0.132563
C	 1.2647816122	 0.6492398384	-0.0065504377	-0.132563
O	-0.0002401788	-0.007710059	 0.0020405474	-0.20446
H	-0.3176332635	 1.8858659797	 0.9347575102	 0.117396
H	-0.3352758293	 1.8957667327	-0.9039757823	 0.117397
H	 1.8324668196	 0.5625684765	-0.9319329026	 0.117397
H	 1.8500825819	 0.5526793813	 0.9068014688	 0.117396
