19
gdb 50347	2.87028	1.55091	1.49211	3.4598	74.33	-0.2415	-0.0237	0.2179	983.2672	0.161267	-423.046106	-423.03875	-423.037806	-423.078122	28.985	
O	-0.2080506235	 0.0368172213	-0.0807419502	-0.241725
C	-0.0297346177	 1.2038270313	 0.1471804549	 0.142289
C	 1.284156489	 1.9427653993	-0.0137774335	 0.039721
O	 2.3960655522	 1.0623483804	-0.1315070634	-0.272913
C	 3.0589486217	 1.3996044377	-1.3653724841	 0.111731
C	 2.1860533493	 0.8918424349	-2.5285103825	-0.214022
C	 1.009680679	 1.9222248143	-2.5238208585	-0.222889
C	 1.3483238671	 2.8145273087	-1.3040774347	-0.069984
C	 2.8835887191	 2.9226891848	-1.4302214588	-0.228439
H	-0.8593552521	 1.8623363208	 0.5006481723	 0.068341
H	 1.4024317815	 2.580648109	 0.8788469572	 0.086744
H	 4.0723687209	 1.0012686692	-1.3190071651	 0.078258
H	 2.7328784305	 0.8928559508	-3.4762012531	 0.094899
H	 1.8478651085	-0.1251914943	-2.3228056187	 0.129634
H	 1.0043141355	 2.5298170276	-3.433376872	 0.099307
H	 0.0330673714	 1.4407275008	-2.4465324951	 0.118664
H	 0.7855372798	 3.7457751044	-1.235030438	 0.072972
H	 3.3659008612	 3.442176793	-0.5986729504	 0.105414
H	 3.2009236065	 3.3628644958	-2.3793175862	 0.101999
