17
gdb 130047	4.87234	1.05817	0.91502	2.2185	75.25	-0.2085	0.0184	0.2269	1264.8711	0.138873	-414.199533	-414.191666	-414.190721	-414.23244	29.804	
N	 0.028199634	 1.2213509276	 0.3479295697	-0.580433
C	 0.0531040144	-0.1298191219	 0.064370501	 0.402651
N	-0.9773912828	-0.9332639108	 0.2924293537	-0.333384
N	-0.4645718	-2.1571942172	-0.0564595952	 0.039854
C	 0.8028147701	-2.0041350479	-0.4812326123	 0.008833
N	 1.177666272	-0.7400336904	-0.4158018836	-0.331205
C	-1.2834122576	-3.3276150552	-0.0457188555	 0.046933
C	-0.7130390127	-4.6029834271	 0.5177482814	-0.285948
C	-1.7766517579	-3.8488264293	 1.2745089576	-0.251694
H	 0.6800433419	 1.7514602889	-0.2114413307	 0.257023
H	-0.9000362885	 1.6179656078	 0.3543366019	 0.255589
H	 1.4070266223	-2.8313397177	-0.8218452408	 0.139096
H	-1.9545598264	-3.4015403733	-0.8964422902	 0.113864
H	-0.9769023574	-5.5292725426	 0.0208956136	 0.125389
H	 0.2962829734	-4.5732869436	 0.9107348567	 0.129509
H	-1.4740281352	-3.2990269121	 2.1570445833	 0.139341
H	-2.7816964394	-4.251946575	 1.3082996793	 0.124583
