17
gdb 11338	5.4006	1.23464	1.0836	3.9689	74.83	-0.2386	-0.0234	0.2152	1111.5482	0.143074	-363.896779	-363.889015	-363.888071	-363.929365	28.445	
C	 0.0360787332	 1.5181842644	 0.2321062636	-0.378776
C	-0.0433387719	 0.0143887236	-0.0921354903	-0.296025
C	-1.4408658517	-0.5195092968	-0.1048399621	 0.312892
C	-2.1474545243	-1.0233340398	-1.1214818652	-0.284401
C	-3.4756188099	-1.4250553762	-0.6507020859	 0.421113
N	-4.4099259083	-1.9402403042	-1.3327987088	-0.553963
O	-3.5461903279	-1.1442285824	 0.697037164	-0.250923
C	-2.3115130925	-0.5716938235	 1.1269192829	-0.172448
H	 1.0753015191	 1.858217165	 0.2116654377	 0.123952
H	-0.529416803	 2.1052689558	-0.4975575255	 0.130702
H	-0.3660111026	 1.7390387728	 1.2256529948	 0.123074
H	 0.4208007155	-0.1768839407	-1.0649019021	 0.117803
H	 0.5466720537	-0.5399733165	 0.6507772746	 0.114688
H	-1.8386023781	-1.1469333039	-2.1493184966	 0.122021
H	-5.2242700508	-2.1199976486	-0.7436771924	 0.220207
H	-1.8765922982	-1.1976460418	 1.9190213304	 0.123849
H	-2.5066338325	 0.4198204429	 1.556656781	 0.126234
