18
gdb 34303	3.27461	1.42367	1.27384	3.4407	75.06	-0.261	0.028	0.289	1026.9104	0.150904	-401.97933	-401.972126	-401.971182	-402.010851	28.728	
N	-0.0258587023	-1.1036967337	-0.0238587863	-0.340652
C	-0.0132502417	 0.0522393203	-0.0078248193	 0.174295
C	-0.0098421789	 1.5021296917	 0.0135670173	 0.156363
C	-0.6851225302	 2.1445518035	 1.2631983763	-0.252983
C	-0.180737943	 3.6208996329	 1.1939095445	-0.225435
C	 0.7122357118	 3.5989070774	-0.0607525084	 0.088837
C	 1.3690592054	 2.2149673703	 0.005289583	-0.256231
O	-0.1365716181	 3.5002346976	-1.2147739085	-0.275352
C	-0.6408562842	 2.1596049966	-1.2420456732	-0.097574
H	-1.7726771854	 2.0564047414	 1.2142057398	 0.120161
H	-0.3514050564	 1.6404989792	 2.173232467	 0.121877
H	-0.9927333486	 4.3399780561	 1.0700495415	 0.118371
H	 0.3869158172	 3.8971318336	 2.0871982565	 0.107511
H	 1.3662285448	 4.4604792764	-0.1935361092	 0.085871
H	 1.9443266567	 2.0338868249	 0.9155897723	 0.117983
H	 1.9716359387	 1.9802486555	-0.874115877	 0.12414
H	-0.3289897922	 1.6598427609	-2.1668657352	 0.118212
H	-1.7357622436	 2.1606965853	-1.193827441	 0.114607
