25
gdb 100530	2.75065	0.86621	0.82887	2.3973	89.35	-0.2334	-0.0077	0.2257	1628.2556	0.225587	-389.529288	-389.51738	-389.516435	-389.56753	42.24	
C	-0.4614158481	 1.3166258521	 0.117831198	-0.397752
C	 0.0415776288	-0.1288361697	 0.0686582719	-0.164408
C	 0.73129125	-0.5151788466	-1.2503759192	-0.063914
C	 2.0213723563	 0.2928176018	-1.5124930289	-0.398882
C	 1.1079377098	-1.9991768541	-1.2602117721	 0.381085
O	 1.4112493679	-2.5823707985	-0.2428617982	-0.332293
C	 1.0814140634	-2.714394297	-2.6146919418	-0.061054
C	 2.0927617027	-3.8621286632	-2.6656070461	-0.387927
C	-0.3574560145	-3.2183649311	-2.859822587	-0.39104
H	 0.3575184768	 2.0405364627	 0.0640157348	 0.117801
H	-1.148284471	 1.53014279	-0.7095404987	 0.110127
H	-1.0012812911	 1.5053682935	 1.0509376464	 0.115801
H	 0.7365537537	-0.3204983403	 0.8926107888	 0.116786
H	-0.8027581809	-0.809670527	 0.2300423825	 0.097453
H	 0.0446172213	-0.3319029092	-2.088320084	 0.074475
H	 1.803297217	 1.3593707724	-1.6096143329	 0.123909
H	 2.726825583	 0.1590704879	-0.6859909427	 0.132913
H	 2.5179376056	-0.0257970936	-2.4348173369	 0.118336
H	 1.3144852668	-1.9767495639	-3.393415309	 0.078114
H	 1.9096408231	-4.5640094132	-1.8482761415	 0.137457
H	 2.0187021638	-4.4005106738	-3.6155577058	 0.105864
H	 3.1177848099	-3.4942086546	-2.5603581246	 0.115181
H	-1.0896419859	-2.4052342156	-2.8263869646	 0.118253
H	-0.4303221555	-3.6938466478	-3.8426373345	 0.120436
H	-0.6362610228	-3.9572592911	-2.1017209039	 0.133277
