18
gdb 13092	4.13829	1.15798	0.97513	1.3329	68.82	-0.249	-0.0267	0.2223	1184.5241	0.151955	-384.930401	-384.921733	-384.920789	-384.964783	30.137	
C	-0.2957955747	 1.5575383793	-0.0594915616	-0.40397
C	 0.0826544389	 0.092504664	-0.0103215144	 0.146518
O	 1.2821758671	-0.2007021446	-0.7667799972	-0.287708
C	 1.8113523545	-1.0094617393	 0.2994088816	-0.082976
C	 0.6988269889	-0.5470323186	 1.2694690573	-0.068158
C	 1.1344312625	 0.4052937343	 2.3892507632	-0.29589
C	 1.8661578183	-0.3304530051	 3.4901076036	 0.158487
O	 1.5581712014	-0.3098157616	 4.6537283633	-0.236213
H	 0.5081261861	 2.1982071498	 0.312046344	 0.121723
H	-0.5041500113	 1.8447229242	-1.0948772291	 0.132046
H	-1.1987488033	 1.7441633104	 0.5315435271	 0.120903
H	-0.7560686445	-0.513530417	-0.3849408877	 0.075856
H	 1.7897027576	-2.0800496282	 0.056272318	 0.102832
H	 2.8399987487	-0.7260144343	 0.5542794425	 0.101944
H	 0.0939937979	-1.3554889528	 1.6880183123	 0.088664
H	 1.8199266621	 1.1610165354	 1.9807725342	 0.126482
H	 0.2801060311	 0.9234868606	 2.8342781257	 0.124408
H	 2.7439741988	-0.9258107766	 3.1450572772	 0.075051
