18
gdb 63337	2.5186	1.53191	1.20093	2.7588	76.29	-0.2472	0.0067	0.2539	1094.3942	0.147509	-435.31398	-435.305082	-435.304138	-435.347368	33.706	
C	 0.00446464	 1.5282819685	-0.0126683802	-0.409434
C	-0.0063755189	 0.0017155364	 0.0277394067	 0.277547
C	-1.4163710143	-0.5772303472	-0.0669694599	-0.409365
O	 0.7772716658	-0.4985374353	-1.0886447408	-0.252302
C	 1.8342689231	-1.2236831352	-0.6629231168	 0.462123
N	 2.6478885169	-1.7521497191	-1.4715026693	-0.564341
N	 1.7995290921	-1.2371522341	 0.7357767003	-0.417086
C	 0.73372446	-0.5292899728	 1.2536106239	 0.367405
N	 0.3669591607	-0.311325827	 2.4481963487	-0.548825
H	 1.0294339535	 1.9079861193	 0.0046980468	 0.127635
H	-0.4835492288	 1.8832515714	-0.9241790368	 0.13005
H	-0.5265082819	 1.9181851949	 0.8587645341	 0.146354
H	-1.9049289779	-0.2276406685	-0.9802642138	 0.130125
H	-1.3852454965	-1.6698299397	-0.0843772979	 0.127622
H	-1.998678394	-0.2589823379	 0.8007866638	 0.146262
H	 3.3812770861	-2.2606012153	-0.9840215848	 0.214699
H	 2.4899772867	-1.7162118531	 1.2894252682	 0.259393
H	 0.9862985872	-0.7474214653	 3.1323461778	 0.212137
