15
gdb 36170	3.80443	1.22267	1.13356	0.3355	69.93	-0.2475	0.0394	0.2869	1083.21	0.109637	-420.46862	-420.461065	-420.460121	-420.501099	28.987	
C	-0.0014608341	-1.2227200073	 0.0381924971	-0.442424
C	 0.0233886266	-0.0243968995	-0.0368580656	 0.303184
C	 0.0656571644	 1.4311184671	-0.1172680525	-0.50293
C	 1.4603113431	 1.9882184225	-0.042132645	 0.443827
O	 2.4257604524	 1.722353132	-1.0992691429	-0.340523
C	 3.1849251647	 2.5572792035	-0.1809630973	 0.033775
C	 1.969021619	 3.4498438753	 0.2158829779	-0.014424
O	 2.1385570886	 3.2562630157	 1.64639931	-0.324811
C	 2.5287010657	 1.9629888163	 1.1026627789	 0.004661
H	-0.0263690055	-2.2826319019	 0.0976650084	 0.201636
H	-0.4009245237	 1.7752135118	-1.0488217029	 0.150043
H	-0.5061617264	 1.8746215868	 0.7083473164	 0.154873
H	 4.2177902065	 2.8058009492	-0.4185877653	 0.110574
H	 1.6236258888	 4.4137882168	-0.1571410148	 0.107728
H	 2.8419949099	 1.1681396516	 1.7777972076	 0.114812
