20
gdb 115478	3.04956	0.991	0.84743	2.4021	76.93	-0.2453	0.0171	0.2624	1433.4946	0.1714	-440.310171	-440.300771	-440.299826	-440.345488	33.728	
C	 0.3122157154	 0.9061683416	 0.7138605323	-0.38033
C	-0.3363900807	 0.432094014	-0.5967948509	-0.272925
C	 0.6462796465	-0.187509179	-1.5373099514	 0.415682
N	 0.9318106091	 0.2134314401	-2.710225698	-0.342626
C	 1.958101864	-0.7018127629	-3.2423063318	-0.007002
C	 3.1819196359	 0.1149061692	-3.6681051641	-0.052219
O	 2.8350371565	 1.0869004252	-4.626849749	-0.422583
C	 2.2183148529	-1.6953562467	-2.0837277881	-0.133551
O	 1.2825013584	-1.2925307173	-1.0586138194	-0.256153
H	 0.7942108288	 0.0743861281	 1.2332519949	 0.137316
H	 1.0692557975	 1.6722523317	 0.5207337728	 0.127295
H	-0.4431306759	 1.3359257718	 1.3772265583	 0.121094
H	-1.1093440443	-0.3129609325	-0.372351849	 0.125534
H	-0.8158857311	 1.2608213989	-1.1215460457	 0.131221
H	 1.5563369138	-1.2020463497	-4.1312903636	 0.093715
H	 3.6320652047	 0.5691320457	-2.7677681009	 0.079516
H	 3.9365740962	-0.5370878058	-4.123379271	 0.103537
H	 2.0370409921	 1.5124822447	-4.2866823704	 0.295047
H	 2.0184135552	-2.7378978744	-2.3414237818	 0.121932
H	 3.2313471249	-1.6188831326	-1.6722140532	 0.115499
