21
gdb 101211	3.98724	0.84358	0.82638	4.1197	78.95	-0.2725	0.0128	0.2853	1498.7641	0.181273	-424.266944	-424.257221	-424.256276	-424.302221	35.446	
C	 0.2864709938	 1.5165720519	 0.1685728755	-0.395856
C	 0.0220309583	 0.0248030282	-0.0556750607	-0.169248
C	-1.4651637402	-0.3839042381	 0.0022728382	 0.010264
C	-2.2965580537	 0.2869942202	-1.1005360284	-0.413928
C	-1.5724806826	-1.9067345032	-0.0148950751	 0.138021
C	-2.9453205107	-2.6055558225	-0.0672596614	-0.457069
C	-2.4473467046	-3.1328228424	-1.4128069245	 0.454948
O	-2.8377349571	-3.8376641624	-2.2861191657	-0.317495
O	-1.2387100885	-2.4887123175	-1.3330664808	-0.254455
H	 1.3617691866	 1.7172622243	 0.1957053414	 0.118065
H	-0.1400119535	 2.1355646183	-0.6261341956	 0.122773
H	-0.1381559532	 1.8561691795	 1.1203556603	 0.11312
H	 0.4333591695	-0.2864056493	-1.0238910891	 0.117876
H	 0.5687292536	-0.5479009242	 0.7047043991	 0.093599
H	-1.8630709015	-0.0726649262	 0.9806934578	 0.079846
H	-2.2406787504	 1.3748924058	-1.0199188351	 0.123454
H	-1.9298581853	 0.0005231403	-2.0905201226	 0.139849
H	-3.355335904	 0.0180189188	-1.0419948715	 0.115213
H	-0.8993275436	-2.3398123919	 0.7312447586	 0.094553
H	-3.1166000978	-3.3824052067	 0.6797167836	 0.142564
H	-3.8244821852	-1.9637482729	-0.132473394	 0.143906
