19
gdb 85332	1.78282	1.67631	0.89469	2.8454	80.58	-0.2349	-0.0455	0.1894	1285.485	0.158935	-423.073519	-423.06466	-423.063716	-423.106931	33.571	
C	-0.0259398096	 1.4993175948	 0.0612487155	-0.477374
C	-0.0210442289	 0.0004373485	-0.0108938477	 0.305403
C	-0.0553858438	-0.6608366409	-1.1811027492	-0.241092
C	-0.0158276029	-2.1302550905	-1.2836758924	 0.366922
O	-0.1005883667	-2.7064289281	-2.3507164845	-0.336602
C	 0.171811567	-2.8863029349	 0.0293904897	-0.340544
C	-0.482831728	-2.1646276732	 1.2101881421	 0.098084
O	-0.2028615402	-2.7904578266	 2.4535027539	-0.43487
C	 0.0353590744	-0.7320590011	 1.3075561564	-0.290923
H	 0.8404129531	 1.8610551462	 0.6295481013	 0.137076
H	-0.0066069917	 1.9569836843	-0.9301779885	 0.133152
H	-0.9150987917	 1.85830745	 0.5947472959	 0.137278
H	-0.1059857814	-0.1291655331	-2.1269089884	 0.098237
H	-0.2140330631	-3.9022429267	-0.0997071342	 0.110515
H	 1.2500702927	-2.9659328682	 0.2266550317	 0.127474
H	-1.5715584531	-2.1265339594	 1.0394766401	 0.077353
H	-0.5463409045	-3.6891509419	 2.4198059733	 0.284104
H	 1.0746461239	-0.762433486	 1.6670791268	 0.129656
H	-0.5280562555	-0.1841252132	 2.0711792183	 0.116149
