19
gdb 31512	3.21312	1.03847	0.83435	1.0703	80.99	-0.1646	0.0531	0.2177	1410.5152	0.159128	-419.238252	-419.228326	-419.227382	-419.273191	36.353	
C	 0.0711287429	 1.4991324722	-0.3376301697	-0.363022
C	-0.0360442813	 0.039974684	 0.1425553114	-0.297589
C	-1.4362828412	-0.4831734848	 0.1956918666	 0.322861
C	-2.2329177415	-0.8133268218	 1.2726266859	-0.313594
C	-3.4934539714	-1.2674329155	 0.7785503662	 0.179076
N	-4.6275674599	-1.6443412597	 1.5319906315	-0.620301
C	-3.426840753	-1.1883302245	-0.5907970473	 0.228438
O	-4.3367976955	-1.5527921103	-1.5461828071	-0.444146
N	-2.1808828875	-0.7002567477	-0.9399053954	-0.352187
H	 1.1143024818	 1.8313858524	-0.3539122993	 0.109364
H	-0.3320588431	 1.6168278908	-1.3490813231	 0.1071
H	-0.4929263968	 2.1658558211	 0.3213713043	 0.124199
H	 0.5845477189	-0.5964273061	-0.5046436934	 0.098474
H	 0.3912771086	-0.0444825159	 1.1469853453	 0.112044
H	-1.9453128019	-0.7331336529	 2.310912052	 0.080722
H	-4.3637271703	-2.1491277334	 2.370072097	 0.237521
H	-5.2351312192	-2.2439798241	 0.9841101854	 0.236667
H	-4.9802386144	-0.8427137455	-1.6591762968	 0.300522
H	-1.8529807254	-0.6317970785	-1.8874821035	 0.25385
