21
gdb 59105	2.08345	1.60041	1.01185	2.5063	81.	-0.2219	0.0238	0.2457	1236.3365	0.181403	-420.394035	-420.384316	-420.383372	-420.428466	35.954	
C	-0.7245960098	 1.3115192192	 0.1816126474	-0.4034
C	-0.1721823841	-0.0950081485	 0.1187974122	 0.113127
O	 0.8786928066	-0.1951768373	-0.9092335189	-0.263022
C	 1.8384842453	-0.4968948756	 0.022350155	 0.430455
N	 3.0747870077	-0.6681419093	-0.1126607913	-0.551657
C	 0.8653231872	-0.560047776	 1.1908577975	-0.103526
N	 1.1063767377	 0.2982312463	 2.3304729473	-0.071819
C	 0.0403354366	 0.1660706403	 3.3152835479	-0.322192
C	 2.4111854152	 0.062383924	 2.9473203291	-0.328956
H	 0.0388670244	 2.0119723068	 0.5259087777	 0.141989
H	-1.0673611321	 1.6109288247	-0.8133332227	 0.130446
H	-1.5796733827	 1.3651845687	 0.8620545095	 0.122591
H	-0.9512288428	-0.8313895818	-0.0981858542	 0.091509
H	 3.3589700193	-0.5408460737	-1.0859498886	 0.227254
H	 0.6903261191	-1.6130941836	 1.4838200376	 0.081717
H	-0.0082004474	-0.8480089969	 3.7567049386	 0.095573
H	 0.2031646504	 0.8809945819	 4.1271651875	 0.123721
H	-0.9306742993	 0.3847563619	 2.8631862084	 0.117318
H	 3.1998533742	 0.1440260788	 2.1995447983	 0.164396
H	 2.5743163956	 0.8130997485	 3.7267451116	 0.113385
H	 2.4831257388	-0.9370475884	 3.4157738799	 0.091089
