20
gdb 26213	3.9559	0.92145	0.86161	3.3427	83.53	-0.2069	0.0361	0.243	1437.3303	0.170344	-403.183091	-403.173198	-403.172253	-403.218768	35.541	
C	 0.0973312188	 1.5741038682	 0.4118221952	-0.388693
C	-0.044245832	 0.1234249952	-0.0606202105	 0.028602
O	 0.8302980928	-0.7304811297	 0.6935807807	-0.436126
C	-1.4634776793	-0.3703201003	-0.0360669522	 0.250537
C	-2.0899362923	-1.0906492888	-1.0306798821	-0.204595
N	-3.3673238972	-1.3866515487	-0.6286019245	 0.021169
C	-4.3131169681	-2.1989760258	-1.3646428874	-0.335204
C	-3.5664490355	-0.8722095875	 0.6281351464	-0.08196
C	-2.4135548746	-0.2353240912	 1.0230540512	-0.290357
H	 1.1489259115	 1.8724077413	 0.3834632802	 0.115608
H	-0.4822918596	 2.2524007297	-0.222540992	 0.111805
H	-0.2583984001	 1.6870342855	 1.4417504328	 0.107592
H	 0.3288840965	 0.0548391151	-1.0897143922	 0.076811
H	 0.3517819537	-0.9905132562	 1.4874222029	 0.274186
H	-1.7255519635	-1.4153393986	-1.9932091471	 0.117514
H	-4.1760094674	-3.2678624272	-1.1633879662	 0.139968
H	-5.3314408893	-1.9190861516	-1.0851368121	 0.14071
H	-4.1914747555	-2.0276011179	-2.4370026975	 0.14189
H	-4.5150674641	-0.9972058717	 1.1264986439	 0.115026
H	-2.2788334248	 0.2933226602	 1.9548690204	 0.095518
