22
gdb 58358	1.75625	1.43027	1.03249	3.92	84.02	-0.2245	0.0307	0.2552	1314.241	0.192958	-404.357263	-404.347162	-404.346218	-404.392804	37.218	
C	-0.1586766881	 1.4218361943	-0.0885608123	-0.387834
C	 0.0845462146	-0.0947821863	-0.0743086872	 0.027413
C	 0.8357247504	-0.5775886291	-1.3241543269	-0.387621
N	 0.7377473598	-0.5389880905	 1.1698826527	-0.061505
C	 1.9926210339	-0.1102037521	 1.490099699	 0.144982
O	 2.6166920462	-0.4174465019	 2.4878870932	-0.352253
C	 0.084153046	-1.4383812088	 2.0904157024	 0.0655
C	-1.3904934641	-1.3877664487	 2.383350033	-0.292002
C	-0.7977022293	-2.5732872378	 1.6462331359	-0.292079
H	 0.7815455167	 1.9800960287	-0.1277818141	 0.126038
H	-0.7480073095	 1.7020284853	-0.9674485962	 0.118825
H	-0.7018824261	 1.735792565	 0.8069623202	 0.128383
H	-0.8959379245	-0.577277787	-0.0821508341	 0.095872
H	 1.8171517621	-0.1019299077	-1.4125270214	 0.125991
H	 0.9857717119	-1.6602142541	-1.2922554982	 0.12837
H	 0.2657510238	-0.3331328832	-2.2261788928	 0.118787
H	 2.4080089407	 0.5716041606	 0.7262690755	 0.072927
H	 0.7465816555	-1.6259367252	 2.9247938676	 0.141956
H	-1.7065898144	-1.5114729572	 3.4132396859	 0.122041
H	-2.0133233923	-0.708180509	 1.8114897718	 0.117085
H	-1.0323543192	-2.6703801374	 0.5915966892	 0.117091
H	-0.7014703541	-3.5214696579	 2.1635242368	 0.122035
