14
gdb 27606	3.54337	1.22317	0.90929	2.7106	81.9	-0.2442	-0.0392	0.2049	1190.6938	0.101859	-399.578036	-399.570626	-399.569682	-399.609825	28.743	
O	 0.1012304684	 1.3546492319	 0.1090948081	-0.430888
C	 0.0676550966	 0.0033699725	 0.0393896891	 0.417407
C	 0.0702728991	-0.6974784138	-1.1641271198	-0.330002
C	 0.0336699054	-2.0965383875	-1.1283418739	 0.189952
N	-0.0041608783	-2.8040619944	 0.0138859801	-0.334573
C	-0.0057319303	-2.1063973758	 1.1513304295	-0.001135
C	 0.0285707153	-0.7203774115	 1.2315646647	-0.195294
C	 0.0358789813	-2.8292145576	-2.358434161	 0.225874
C	 0.0388238959	-3.4147152773	-3.4096712299	-0.370121
H	 0.1259591585	 1.7214122039	-0.7817202057	 0.303593
H	 0.0999331438	-0.180464324	-2.1178122698	 0.101706
H	-0.0365519441	-2.6943129045	 2.0656385031	 0.112649
H	 0.0255484428	-0.2033244041	 2.1832209718	 0.11436
H	 0.0408227756	-3.9494054079	-4.3273448264	 0.196471
