16
gdb 130153	3.20597	1.1853	0.89919	1.0392	68.64	-0.2056	0.0193	0.2249	1242.2132	0.125412	-471.208149	-471.199008	-471.198064	-471.242437	32.923	
N	 0.0112861547	 1.3151186794	-0.3364387298	-0.61127
C	 0.0498867597	-0.0707063268	-0.0704661143	 0.224038
N	-1.0227886998	-0.8320705111	 0.1296273583	-0.288617
N	-0.5231943333	-2.0732234792	 0.2881602054	-0.255918
C	 0.8363188239	-2.1391899205	 0.1712159349	 0.247401
C	 1.5874647673	-3.4245154964	 0.2851158636	-0.182401
O	 0.925500387	-4.4954468739	-0.3845893845	-0.417036
C	 1.236245648	-0.8396861893	-0.0642038399	 0.135857
O	 2.5066668873	-0.3902079323	-0.2580766176	-0.457341
H	 0.2341175611	 1.8616065793	 0.4910761048	 0.247313
H	-0.919306219	 1.5857693596	-0.6369522081	 0.251144
H	-1.1453391484	-2.8593082213	 0.3640168823	 0.275218
H	 2.61191258	-3.2698301912	-0.0802529644	 0.119971
H	 1.6630131336	-3.7521520553	 1.3287496645	 0.127147
H	 0.872470481	-4.2603776783	-1.3175208312	 0.285987
H	 2.426985207	 0.4873541075	-0.6544798041	 0.298509
