20
gdb 117289	4.21693	0.67678	0.61327	2.6813	77.64	-0.2448	-0.0292	0.2156	1842.5745	0.16881	-440.35283	-440.34243	-440.341486	-440.38983	36.812	
C	-0.2515623931	 1.3702034372	 0.1316045998	-0.387828
C	 0.4619986963	 0.0164192861	 0.1541102329	-0.164672
C	 0.4612339728	-0.6707433196	-1.2105393672	-0.278467
C	 1.1451694683	-2.023643458	-1.2337209897	 0.366248
O	 1.5920501367	-2.5355701931	-0.2262359034	-0.318661
C	 1.2572525581	-2.697767956	-2.5984098308	-0.401029
C	 0.9487408292	-4.2054863749	-2.6480001018	 0.382829
N	 1.5336293881	-4.9366002075	-1.6622916727	-0.509087
O	 0.2803739133	-4.6751500795	-3.5465401035	-0.354923
H	 0.2231729711	 2.061316892	-0.5739924237	 0.114911
H	-1.3006379429	 1.2641532102	-0.1666072438	 0.116473
H	-0.2334300751	 1.8403780027	 1.1192449234	 0.118875
H	 1.4972128183	 0.1408787076	 0.4904496908	 0.112045
H	-0.0087979403	-0.6477243855	 0.8864163047	 0.116097
H	-0.5651003782	-0.8231672694	-1.578199276	 0.133923
H	 0.9366193821	-0.0406052321	-1.9768425114	 0.125931
H	 0.62120497	-2.2134653801	-3.3399275391	 0.136159
H	 2.2989719088	-2.5658002863	-2.9218235028	 0.159055
H	 1.8660732857	-4.4530883456	-0.8382135557	 0.27533
H	 1.2713393109	-5.9074737584	-1.5977721	 0.256791
