21
gdb 96503	2.33064	1.51893	1.02619	1.9782	78.59	-0.2366	-0.0111	0.2254	1207.7933	0.183284	-424.252324	-424.243416	-424.242472	-424.28593	33.766	
C	-0.0717177432	 1.5566301943	-0.1463074409	-0.399436
C	 0.0320059481	 0.0370115499	-0.0031324394	-0.057261
C	 0.9348112027	-0.5870587777	-1.1010173743	-0.240485
C	 0.5799354717	-2.0382884417	-1.4659358868	-0.078691
O	 0.1265456053	-2.837536889	-0.386579497	-0.240264
C	 0.9541957583	-2.8462041182	 0.7607148671	-0.095525
C	 0.5009393564	-1.8067540313	 1.7978728407	-0.286757
C	 0.6061459434	-0.3493243609	 1.3658321449	 0.37017
O	 1.1335518963	 0.4725272537	 2.0817497114	-0.309112
H	 0.9160392636	 2.0219311287	-0.0919891966	 0.130287
H	-0.527975976	 1.8177503764	-1.1062252343	 0.104461
H	-0.6772705715	 1.9885983421	 0.6545873723	 0.122688
H	-0.9643409487	-0.4153115802	-0.0892516855	 0.094029
H	 0.851224989	 0.0121682647	-2.0145820068	 0.109
H	 1.9839897963	-0.5075425111	-0.7919814805	 0.112316
H	-0.2512662677	-2.0479803579	-2.1784561866	 0.112534
H	 1.4431434907	-2.5145440581	-1.9586314598	 0.09299
H	 0.8657436	-3.8434599885	 1.2051926147	 0.114309
H	 2.0112163322	-2.7026403909	 0.4931962839	 0.100621
H	-0.5545260414	-2.0120201257	 2.0225825349	 0.126912
H	 1.0700284248	-1.9187837085	 2.7252618985	 0.117214
