16
gdb 123766	4.90062	1.05564	0.96904	1.7745	70.12	-0.2508	-0.0066	0.2441	1203.5475	0.127381	-434.047164	-434.039755	-434.038811	-434.080448	26.653	
C	-0.2143461647	 1.0308386004	 0.4233184552	-0.06368
C	 0.940244844	 1.1834784554	-0.5836357708	-0.286268
C	 1.779559494	 0.4419341655	 0.4933731658	 0.041963
O	 0.5913976421	 0.191169536	 1.2810517558	-0.289978
C	 2.4760651671	-0.8194443194	 0.1194742077	 0.301444
N	 3.7817526595	-0.8629145261	-0.1603201558	-0.285556
N	 3.9832250784	-2.1387705211	-0.4615167159	-0.071003
N	 2.9310012052	-2.9422362886	-0.3914642993	-0.195756
C	 1.9504893942	-2.1177008669	-0.0226862729	-0.120233
H	-0.5106600142	 1.9588613921	 0.928534002	 0.104676
H	-1.1143831412	 0.5128370307	 0.074937174	 0.109089
H	 0.8130392138	 0.6130308172	-1.5047729894	 0.117807
H	 1.2584096356	 2.198455852	-0.8233836208	 0.116926
H	 2.4797448498	 1.1045240534	 1.0179037873	 0.093158
H	 4.8956179372	-2.4835977645	-0.7128310727	 0.293445
H	 0.9469555092	-2.473464356	 0.1395631697	 0.133965
