16
gdb 5069	3.25124	1.96766	1.24341	2.0956	67.68	-0.179	0.0558	0.2348	940.1575	0.130384	-379.950418	-379.941571	-379.940627	-379.983798	31.639	
C	-0.0213882136	 1.4997150194	 0.0675150498	-0.537759
C	 0.0216081805	 0.0037768695	 0.0262442025	 0.11725
C	-0.0001354956	-0.8067258101	-1.0982660426	 0.174278
N	-0.0654748462	-0.5384035387	-2.4871343017	-0.613166
N	 0.0558778846	-2.1084665905	-0.6823828587	-0.251404
C	 0.1150854149	-2.1726902914	 0.6934214575	-0.183341
C	 0.0941906053	-0.8750306618	 1.1474745257	 0.241773
O	 0.1382128595	-0.5200833979	 2.4686075503	-0.451625
H	 0.8618048377	 1.9313149295	 0.5579720738	 0.120799
H	-0.0565392466	 1.9122261764	-0.9454413462	 0.112157
H	-0.9039801688	 1.880835715	 0.5992076821	 0.12121
H	 0.7286367488	 0.0062110412	-2.807828788	 0.241586
H	-0.9038007426	-0.0235944168	-2.7361003523	 0.241627
H	 0.0516009788	-2.8865242126	-1.3178033757	 0.257765
H	 0.165607308	-3.1062206556	 1.2263510923	 0.116262
H	 0.1087892151	 0.4395120843	 2.5226559113	 0.292588
