18
gdb 64948	4.16003	0.62755	0.58456	3.9826	83.78	-0.2448	-0.027	0.2178	1892.0716	0.144808	-401.902528	-401.892551	-401.891607	-401.93997	34.585	
C	 0.0794790124	 1.4535839624	 0.2584303829	-0.460997
C	 0.0041426544	-0.0224164197	-0.0937936348	 0.095762
C	 0.6311103116	-0.4906731349	-1.3682408538	-0.259892
N	 1.254944859	-0.8244015596	-0.0823274416	-0.327296
C	-1.1612920508	-0.7101395797	 0.4112083471	 0.107303
C	-2.1607297865	-1.2386591672	 0.8271780103	 0.060489
C	-3.3179525957	-1.9473132226	 1.3520600819	-0.422079
C	-2.9284770903	-3.2239011844	 2.1042845493	 0.173576
O	-3.5844659006	-4.2290836396	 2.0862215134	-0.231925
H	 0.9659262421	 1.912553693	-0.1914615859	 0.113091
H	-0.8038479342	 1.9867470358	-0.1059632858	 0.135616
H	 0.1299470468	 1.5905663236	 1.3432675568	 0.133363
H	 0.199763299	-1.3342608179	-1.8978055126	 0.128706
H	 1.0914618244	 0.2634997231	-2.0020912245	 0.114701
H	 2.0399864338	-0.2007442691	 0.0939835686	 0.231715
H	-3.8566584818	-1.312770601	 2.0730405363	 0.154526
H	-4.0369917601	-2.2183313272	 0.5718111303	 0.153954
H	-1.9870918534	-3.1410709549	 2.6885733021	 0.099387
