20
gdb 20056	5.14605	1.29432	1.09889	0.1177	80.79	-0.2343	0.0294	0.2636	1121.0347	0.178897	-311.86971	-311.862151	-311.861206	-311.901862	29.284	
C	-0.1877057739	 1.4246456878	-0.1629539914	-0.273355
C	 1.2568007876	 1.0660295015	 0.087959211	-0.27735
C	 0.2096945213	-0.0178154344	 0.0280243442	 0.035388
C	-0.1975337284	-0.7717449811	 1.2780254426	-0.020166
C	-1.6144573068	-1.4094267226	 1.1977372896	-0.222555
C	-1.517553853	-2.7602308399	 1.950580473	-0.254129
C	-0.031972321	-3.0371209538	 1.9553231856	-0.071735
C	 0.6769486918	-1.967578692	 1.6007702782	-0.068115
H	-0.7345002287	 1.9086622849	 0.6401357486	 0.107951
H	-0.4718063957	 1.7581787732	-1.1548608797	 0.108438
H	 1.9601373428	 1.1537007033	-0.7327656391	 0.108808
H	 1.6767029621	 1.3122187106	 1.0582015634	 0.108475
H	 0.2153662348	-0.6314914924	-0.8703302186	 0.078152
H	-0.1525609252	-0.0600622069	 2.1186585449	 0.066333
H	-2.3941552068	-0.7535036657	 1.5929599632	 0.094338
H	-1.8548541036	-1.5963972774	 0.1452671214	 0.100045
H	-1.898476176	-2.6837303206	 2.9792416131	 0.102901
H	-2.1009943426	-3.5536373293	 1.4694125976	 0.09974
H	 0.3842950563	-3.9921792151	 2.2579529897	 0.088109
H	 1.7597902253	-1.91203466	 1.5634179827	 0.088725
