23
gdb 55680	2.83065	1.02584	0.98082	2.4154	85.71	-0.2397	-0.0104	0.2294	1389.6201	0.203287	-388.310812	-388.300528	-388.299584	-388.346587	37.996	
C	-1.9681603223	 1.0956277888	-1.6883992852	-0.469803
C	-1.8382785541	-0.4080191708	-1.5015641866	 0.38257
O	-2.1209730576	-1.1803606419	-2.3899099234	-0.294936
C	-1.3433151628	-0.8638589948	-0.1320494579	-0.3612
C	-1.0497493188	-2.3614245896	 0.0265446094	 0.362806
C	 0.0987613129	-2.8090239513	-0.8739951152	-0.469203
C	-0.9092253721	-2.7345036879	 1.5405158586	-0.260552
C	-2.3798741625	-3.2295892755	 1.543143024	-0.213938
C	-2.3504462813	-3.23182078	-0.0077850482	-0.241104
H	-2.4333805447	 1.3101930902	-2.6511999868	 0.141508
H	-2.5573037781	 1.5420206994	-0.8800170804	 0.134175
H	-0.9767029224	 1.5621107367	-1.6525278206	 0.140066
H	-0.4515649407	-0.2724341403	 0.1222932331	 0.111703
H	-2.1052849734	-0.5436470957	 0.5945205495	 0.117654
H	 1.0138823933	-2.2432758243	-0.6568054601	 0.100403
H	 0.3217251863	-3.8690998845	-0.7138453038	 0.105322
H	-0.1494694608	-2.6696658745	-1.9289404469	 0.140279
H	-0.1974844594	-3.552900125	 1.6840815047	 0.095052
H	-0.6448324366	-1.9269042854	 2.2303579459	 0.085706
H	-2.581255996	-4.1810626078	 2.0404941249	 0.095633
H	-3.0716785419	-2.4859370739	 1.948952089	 0.096696
H	-3.209669804	-2.8164316932	-0.5363960641	 0.104589
H	-2.149857023	-4.2263486888	-0.41607842	 0.096574
