20
gdb 82320	2.54896	1.72968	1.27273	1.8393	77.24	-0.2319	0.0794	0.3112	1046.7816	0.171826	-403.112005	-403.104114	-403.10317	-403.144061	31.673	
C	-0.8073497724	 1.196220408	 0.0248647232	-0.410501
C	 0.0289573818	-0.069422789	-0.0979095434	-0.016873
N	 0.8841477349	-0.0738520404	-1.3029596782	-0.106822
C	 2.1078553406	 0.7348943236	-1.1708867181	-0.253783
C	 2.1594403465	-0.7307783134	-0.9341669197	-0.016942
C	 2.1119319725	-1.2043040828	 0.5075582386	-0.316351
C	 0.9455914002	-0.4090860439	 1.0905448403	 0.41725
C	 1.0466865242	 0.3765795835	 2.3288961131	-0.252656
O	 0.3376304161	-0.8678046744	 2.2926391306	-0.290722
H	-0.1786973989	 2.0882885075	 0.1101347238	 0.114704
H	-1.4434862348	 1.3129446545	-0.8563899292	 0.12829
H	-1.4522643666	 1.1408930475	 0.9072338085	 0.128001
H	-0.6517232057	-0.9242833009	-0.2125990451	 0.095417
H	 2.4761013688	 1.147951985	-2.1051557909	 0.116824
H	 2.2151649207	 1.3967515676	-0.3141749328	 0.113242
H	 2.5954945935	-1.3857659887	-1.6826556214	 0.092896
H	 1.8768152694	-2.2741754486	 0.5503927835	 0.121078
H	 3.0483838431	-1.0482623621	 1.0505733693	 0.110538
H	 1.9781671057	 0.3646433424	 2.8946971572	 0.110984
H	 0.4289589505	 1.2602067046	 2.4765667507	 0.115426
