24
gdb 6047	2.82586	1.42669	1.23187	1.3802	80.83	-0.263	0.0717	0.3347	1149.1694	0.220661	-351.410831	-351.400022	-351.399078	-351.445992	40.181	
C	 0.0643421655	 1.5512025689	 0.050470601	-0.405364
C	-0.0219357034	 0.0153678431	 0.0467102103	 0.030214
C	 0.864503077	-0.5368099763	 1.1783136902	-0.409128
C	-1.4920951292	-0.5217217852	 0.0495875718	 0.277782
C	-2.29893889	-0.0322232881	 1.2681672492	-0.420864
C	-2.2090763567	-0.0805266436	-1.2442212212	-0.420119
C	-1.4557001043	-2.0638976798	 0.0684477914	-0.098376
O	-2.7776656164	-2.5667099835	-0.0911307312	-0.426264
H	 1.1067428767	 1.867496257	-0.0605734784	 0.108375
H	-0.5032975109	 2.0057455355	-0.7649041315	 0.114191
H	-0.3032771079	 1.971738668	 0.9924622006	 0.115534
H	 0.4183820343	-0.3288156976	-0.9006623952	 0.066594
H	 0.9836260779	-1.622371398	 1.1323417531	 0.111599
H	 1.8664263348	-0.1000103941	 1.1116430278	 0.108907
H	 0.4672597458	-0.2833928522	 2.1671720256	 0.116366
H	-2.4574366388	 1.0494682892	 1.2379300985	 0.108091
H	-3.2782130484	-0.5168945976	 1.2803612298	 0.129836
H	-1.7988352511	-0.2730912666	 2.2121553491	 0.103709
H	-1.6285527893	-0.3608397364	-2.1312452419	 0.099825
H	-3.1853625591	-0.5630296444	-1.3186649245	 0.133812
H	-2.3639445042	 1.0012138157	-1.2719743998	 0.107132
H	-0.8014690872	-2.4229499346	-0.7438444336	 0.077816
H	-1.0322870955	-2.4174869233	 1.0184804581	 0.084279
H	-2.7476484295	-3.5215920062	 0.011811751	 0.286051
