17
gdb 105164	2.72424	1.13403	0.97202	2.7606	77.42	-0.2588	-0.04	0.2188	1244.0842	0.133388	-421.786762	-421.777515	-421.776571	-421.82084	34.038	
O	 0.098917214	 1.3827406352	-0.2994740217	-0.423818
C	 0.0627367752	 0.0407530789	 0.1395407988	-0.147302
C	-1.34592449	-0.5307092862	 0.099567304	 0.199435
C	-1.8971789307	-1.125655587	-1.1818618922	-0.316828
C	-1.5749696919	-2.0515362549	-0.0426133622	-0.261886
C	-0.4518333981	-2.9403874369	-0.0926928402	 0.320863
C	 0.4784878567	-3.7016454107	-0.1249372578	-0.424935
C	-2.3298216148	 0.1682837271	 0.959807049	 0.123811
O	-2.0873413541	 1.1756896202	 1.5852335511	-0.281228
H	-0.412419402	 1.8838833597	 0.3482183908	 0.29715
H	 0.7153967389	-0.5346697213	-0.5214739858	 0.118058
H	 0.4570329713	-0.0618086351	 1.1613723543	 0.104895
H	-2.9436322892	-0.9668685031	-1.4197400968	 0.130766
H	-1.2273542143	-1.1154995195	-2.0333681341	 0.149769
H	-2.4296733595	-2.4369012044	 0.5083945696	 0.124708
H	 1.3027548431	-4.3708481629	-0.1549138847	 0.204557
H	-3.3437788744	-0.2925582492	 0.9932985081	 0.081985
