18
gdb 14518	3.60406	1.92817	1.54855	1.773	67.83	-0.2329	0.0796	0.3125	878.4875	0.152031	-384.857723	-384.849833	-384.848889	-384.889858	29.859	
C	 0.0607353778	 1.3715217433	 0.1371128529	-0.252829
O	-0.1704805999	 0.0067930027	-0.1518574926	-0.292932
C	 0.5841540008	-0.5239191057	-1.2130102631	 0.457043
C	 0.2158995754	 0.0717772654	-2.5625660147	-0.479652
C	 2.0975101794	-0.8700968475	-0.9431161932	-0.015676
C	 1.6650619405	-1.9012451835	 0.1260154536	-0.231527
C	 0.769334892	-2.0684214879	-1.1238512534	-0.009761
O	 1.9777735116	-1.9311981957	-1.9683215051	-0.312362
H	 1.1266977442	 1.5770724942	 0.3142060235	 0.107497
H	-0.2935210381	 2.0361071005	-0.6620450591	 0.11546
H	-0.4956598107	 1.5991519525	 1.0493747001	 0.130131
H	 0.4954675757	 1.1281728211	-2.623548947	 0.115207
H	 0.7294369127	-0.4629212795	-3.360813596	 0.147193
H	-0.8659667429	 0.0022898764	-2.7139322141	 0.12177
H	 2.9854168451	-0.2376553411	-0.9864565025	 0.088077
H	 2.3777069426	-2.7122002024	 0.2765316734	 0.105178
H	 1.204602095	-1.5400041544	 1.0438817527	 0.11482
H	 0.063566869	-2.8596024486	-1.3795399656	 0.092363
