21
gdb 113945	5.18854	0.67233	0.64586	2.4654	80.32	-0.2608	0.0881	0.3489	1799.5354	0.180671	-424.186693	-424.176916	-424.175971	-424.222766	34.903	
C	-0.3088626652	 1.4590046986	-0.6501343548	-0.374987
C	 0.0458845322	 0.2484102987	 0.222803572	-0.214007
C	-1.1823889252	-0.5462762693	 0.5978063537	 0.076705
O	-1.7911635597	-1.3445231996	-0.4273825028	-0.270822
C	-1.2557707541	-2.0107110437	 0.7256745614	 0.060542
C	-0.1071295999	-2.9669189492	 0.4928868906	-0.273792
C	-0.5986349067	-4.2709979901	-0.094055151	 0.106539
C	 0.0102445359	-5.5613898643	 0.2454871783	-0.179957
O	-1.2405749663	-5.171537606	 0.8155949687	-0.238168
H	 0.5857583005	 2.0290625925	-0.9170129145	 0.113406
H	-0.796711633	 1.1340566418	-1.5737975696	 0.134935
H	-0.9946996412	 2.1358068461	-0.1290949291	 0.11644
H	 0.7603500264	-0.3886817117	-0.3063480284	 0.103326
H	 0.5376875989	 0.5824651903	 1.145830998	 0.101498
H	-1.9103741946	 0.0235568043	 1.1823115791	 0.084702
H	-2.0232640531	-2.4109488693	 1.3912705745	 0.102743
H	 0.6274663307	-2.522735502	-0.1856901205	 0.108958
H	 0.3925417326	-3.1720696819	 1.4473490869	 0.107796
H	-1.1057865508	-4.179717326	-1.0553066252	 0.107567
H	-0.0344552679	-6.3876612959	-0.4625344169	 0.115554
H	 0.8505637106	-5.5909209132	 0.9387260696	 0.11102
