21
gdb 17349	4.00999	1.34017	1.12489	1.1901	80.33	-0.2214	0.0889	0.3103	1146.4755	0.187769	-329.086053	-329.077182	-329.076238	-329.119611	33.204	
C	 0.0072585398	 1.6158601043	-0.0317476259	-0.400315
C	-0.0279719927	 0.1042277248	-0.030133597	-0.011266
C	 1.2390267166	-0.6968233864	-0.2257642392	-0.311891
C	 0.5486867292	-0.6995047048	 1.1154011293	 0.057123
N	 1.1885496432	 0.0155277776	 2.1830070491	-0.081604
C	 0.6112266596	-0.0755274539	 3.5200671521	-0.255541
C	 1.9282273927	-0.710378674	 3.2197441025	 0.032093
C	 2.0958081385	-2.2138552124	 3.2147589179	-0.410295
H	 0.8845166822	 1.9807921183	 0.5064721162	 0.132557
H	 0.0381130781	 2.0056649121	-1.0552550015	 0.108483
H	-0.8805388577	 2.0331339396	 0.45692543	 0.109275
H	-0.9219628798	-0.326956107	-0.4740409709	 0.078633
H	 1.2130888204	-1.5979703175	-0.8287177999	 0.104594
H	 2.1676865604	-0.138659257	-0.2823666991	 0.115132
H	 0.0006478865	-1.6052247617	 1.3814417851	 0.068109
H	 0.5449181784	 0.8535648098	 4.0810354389	 0.11005
H	-0.2353357314	-0.7480364026	 3.6598983001	 0.103146
H	 2.8224103017	-0.1743639795	 3.5371342639	 0.086839
H	 1.1636053723	-2.7372200121	 2.9891890754	 0.119055
H	 2.8455129284	-2.5249446611	 2.4791666848	 0.125724
H	 2.4358404734	-2.5528676366	 4.1991286484	 0.120099
