22
gdb 110417	2.89818	1.28438	1.14303	1.4559	85.9	-0.2297	0.094	0.3238	1221.2789	0.194303	-367.159649	-367.15092	-367.149975	-367.192866	34.129	
C	 0.0380341977	 1.5042970473	-0.0632634902	-0.37819
C	-0.1455679419	-0.0153820988	 0.0285862294	-0.209791
C	 0.6676844007	-0.6176930233	 1.164521259	 0.104409
C	 0.7577381993	-2.1358779729	 1.4286846832	-0.119604
C	 1.3193563175	-2.7102950677	 0.1021955302	-0.29549
C	 2.5724175376	-1.8799815782	 0.395959234	 0.352295
C	 3.8895947623	-1.9132716841	-0.3118363818	-0.498537
C	 2.2482087112	-1.8295803107	 1.8435103492	-0.101486
N	 2.1697974793	-0.5714919641	 1.0451876666	-0.196387
H	 1.0941604274	 1.7561135899	-0.1969649698	 0.136771
H	-0.5236593565	 1.9231078294	-0.9036484896	 0.107334
H	-0.3076422424	 1.999903545	 0.8506519289	 0.111938
H	-1.2045258569	-0.2581465427	 0.1915543931	 0.093751
H	 0.1356494567	-0.4740415696	-0.9251046805	 0.098611
H	 0.4276929428	-0.0951467565	 2.099180643	 0.072449
H	 0.0024862045	-2.675219056	 1.9984835259	 0.06684
H	 1.5484904292	-3.7754288738	 0.2002417899	 0.101066
H	 0.7594653862	-2.5439317087	-0.8238364161	 0.092179
H	 3.7946141234	-1.5264534965	-1.3329889559	 0.121723
H	 4.6228402489	-1.2949649906	 0.2128563227	 0.132532
H	 4.2764089173	-2.9362811886	-0.3735802286	 0.115613
H	 2.8306133858	-1.9429398388	 2.7490694772	 0.091975
