22
gdb 106382	3.33482	1.35198	1.20177	1.6139	84.99	-0.2258	0.0893	0.3152	1143.0054	0.196272	-367.162331	-367.154489	-367.153544	-367.194452	32.375	
C	-0.1098675858	 1.5458746709	-0.1108947773	-0.390127
C	-0.0224505833	 0.0254787378	 0.0571298127	-0.294374
C	 0.6927896401	-0.4405664417	 1.3106344897	 0.343793
C	 2.1508341275	 0.0128585087	 1.7235901469	-0.245258
C	 1.6961935442	-0.5875027005	 3.0856006541	 0.004126
C	 0.2993860055	 0.0009707924	 2.7512868084	-0.291946
N	 1.6968595112	-2.044975122	 2.7292297718	-0.112169
C	 0.3733599866	-2.689423149	 2.652346583	-0.259298
C	 0.9038636444	-1.9599607434	 1.4717968739	-0.071284
H	 0.8846845961	 2.0012368382	-0.1571179808	 0.118711
H	-0.635316384	 1.8045609415	-1.0351657785	 0.113155
H	-0.6517647504	 2.0114406775	 0.7186936803	 0.11746
H	-1.03483663	-0.4008335696	 0.0544345446	 0.099742
H	 0.4854655112	-0.406439025	-0.8162461543	 0.09696
H	 2.9934459367	-0.4801645274	 1.2322519037	 0.099983
H	 2.2850875783	 1.0966136183	 1.7416697091	 0.09373
H	 2.2093804757	-0.3865871945	 4.0251831117	 0.070456
H	 0.3032731502	 1.0872165967	 2.8532978909	 0.099789
H	-0.6039716112	-0.3949067041	 3.2175158894	 0.092339
H	 0.436210636	-3.7745532341	 2.6469668222	 0.114015
H	-0.4652572301	-2.3058636139	 3.2217260511	 0.113542
H	 1.2752325014	-2.5103459067	 0.6096072475	 0.086656
