18
gdb 54935	4.36789	0.8586	0.79559	5.7427	75.51	-0.2444	-0.03	0.2144	1449.3193	0.145928	-439.112341	-439.102784	-439.10184	-439.149142	32.442	
C	 0.1470564059	 1.2951422084	-0.4649740532	-0.483349
C	 0.0621259235	-0.1612045348	-0.0512699776	 0.378445
O	 1.0388045864	-0.8686770019	 0.0308228437	-0.288077
C	-1.3358691148	-0.6932664526	 0.2273496513	-0.122407
C	-2.049881582	-1.2828526055	-1.0451687457	-0.193621
N	-2.1272129453	-2.5601155369	-0.3420654451	-0.035411
C	-1.4202059716	-2.1099571837	 0.8574156919	-0.186184
C	-2.5091295259	-3.8003949482	-0.717562142	 0.13491
O	-2.4102396933	-4.7893413209	-0.0213879857	-0.326707
H	 1.161898158	 1.5365888614	-0.782087962	 0.149485
H	-0.5611231598	 1.5151349277	-1.2719027475	 0.139933
H	-0.1317586432	 1.9337285404	 0.3817793595	 0.147503
H	-1.9436205698	 0.0645590042	 0.7250701676	 0.096333
H	-3.0183506239	-0.8304117269	-1.283125295	 0.122682
H	-1.4299414315	-1.3030423467	-1.9496547422	 0.126204
H	-0.4449887927	-2.5842696891	 0.9945838102	 0.150712
H	-2.0079754246	-2.1900993682	 1.7760253998	 0.122895
H	-2.9393208753	-3.8080686267	-1.7412052478	 0.066655
