21
gdb 64093	3.17409	1.22231	1.11433	3.0535	80.19	-0.2271	0.0201	0.2472	1197.7711	0.183535	-420.419588	-420.41056	-420.409616	-420.45291	35.094	
C	-0.0602145666	 1.5289350091	 0.0183564961	-0.429899
C	-0.0559528845	-0.0022963072	-0.0005025062	 0.23522
C	-1.498888293	-0.5330190757	-0.0145460746	-0.404783
C	 0.7150228836	-0.4942833806	-1.2342730955	-0.084894
O	 0.9481544472	-1.912338161	-1.2309536067	-0.255113
C	 1.381206763	-2.5049461017	-0.077365925	 0.373556
N	 2.0763921584	-3.5618498359	-0.0899025442	-0.508071
C	 0.8767216817	-1.9107061867	 1.2250677268	-0.255095
N	 0.633821708	-0.4683577488	 1.2183981311	-0.312827
H	 0.9599930547	 1.9291461112	 0.0491880388	 0.110221
H	-0.5524956189	 1.9345652855	-0.8708128957	 0.119102
H	-0.5908147416	 1.8887608444	 0.9039883341	 0.132535
H	-2.0626420024	-0.0746130614	-0.8326545544	 0.113868
H	-1.5349084043	-1.6155186968	-0.1591883201	 0.126703
H	-1.9948870057	-0.2923012826	 0.929310105	 0.126488
H	 0.1721523415	-0.2971201334	-2.1635098551	 0.11368
H	 1.6859237018	 0.0193458092	-1.2900954711	 0.094811
H	 2.2727060265	-3.8392063911	-1.0548539898	 0.216306
H	-0.059594309	-2.4270609393	 1.4731024519	 0.136069
H	 1.5862256228	-2.1626694544	 2.0145948077	 0.13701
H	 1.5254123167	 0.0152605572	 1.2860896871	 0.215114
