21
gdb 97662	2.86624	0.80745	0.6844	1.994	89.9	-0.241	0.0368	0.2779	1749.1685	0.178953	-387.061892	-387.051039	-387.050095	-387.09877	38.469	
C	-0.0180734333	 1.6239616069	 0.0073643933	-0.364858
C	-0.0076596006	 0.0844862262	-0.0108986592	-0.32222
C	-1.3445100513	-0.4990957837	 0.0235497578	 0.146238
C	-2.4548114939	-0.9684632314	 0.0399744493	 0.004009
C	-3.8035658889	-1.4835794979	 0.095042479	 0.186335
C	-4.8187138615	-0.5671145579	 0.7494075782	-0.47098
O	-4.2744901849	-2.1451871346	-1.1015981722	-0.287013
C	-4.0444906757	-2.9470348232	 0.0573219877	 0.045333
C	-2.9496015778	-3.9765751078	-0.0213798372	-0.430395
H	 1.0044962809	 2.0116207985	-0.0222308423	 0.115619
H	-0.5623480857	 2.0186770333	-0.8546607904	 0.131303
H	-0.5026159171	 1.998986482	 0.9129525856	 0.127758
H	 0.5147284495	-0.2687605868	-0.9092426101	 0.133882
H	 0.5745225228	-0.2892904162	 0.8414237614	 0.129982
H	-4.8811690698	 0.3792246728	 0.2040017393	 0.133856
H	-5.806113317	-1.0355258947	 0.7479151588	 0.125632
H	-4.5292986608	-0.3454453196	 1.7811914774	 0.127244
H	-4.9637136725	-3.2858566769	 0.5420085544	 0.083599
H	-2.0375614062	-3.5436999473	-0.4369264296	 0.137835
H	-2.7287478053	-4.3738498619	 0.9752474495	 0.119779
H	-3.2626273009	-4.8126923398	-0.6554546905	 0.127062
