15
gdb 49874	2.35807	1.49531	1.00904	2.5096	68.61	-0.2624	-0.0399	0.2225	1125.8834	0.113268	-454.013361	-454.005439	-454.004495	-454.046761	28.824	
N	 0.0640494664	 1.3496985443	 0.039434214	-0.528248
C	 0.063476722	 0.0817567286	 0.0122575094	 0.373687
N	 1.1151916405	-0.8194360407	 0.1095820855	-0.358989
C	 0.7632995774	-2.1653046302	 0.0142421647	 0.411609
O	 1.5426126347	-3.0810860267	 0.052784534	-0.342014
C	-0.7529983676	-2.2136327552	-0.1441021398	-0.366317
C	-1.2127036571	-0.7518500925	-0.1169223249	-0.174814
C	-2.1528535892	-0.4089244455	 1.0407290541	 0.151019
O	-2.6066078045	-1.222617697	 1.7999263872	-0.229349
H	 1.0016555126	 1.7381346661	 0.1499587811	 0.219002
H	 2.0797791264	-0.5435858816	 0.2249978785	 0.264889
H	-0.9994361621	-2.7338102532	-1.0721713606	 0.146508
H	-1.1925040628	-2.7815158088	 0.6806943858	 0.171491
H	-1.7254159089	-0.4363612723	-1.0324292908	 0.13854
H	-2.3771327278	 0.6722476449	 1.1248480118	 0.122987
