18
gdb 32822	2.97875	1.27355	1.0285	1.0882	74.42	-0.1781	0.0586	0.2366	1188.8506	0.148408	-439.107804	-439.099054	-439.09811	-439.141405	32.7	
C	 1.0512041284	 0.756885697	 1.3151763726	-0.243118
O	-0.1954217144	 0.1620819829	 0.9962336994	-0.249962
C	-0.1076203498	-0.7851062476	-0.0820997939	-0.218381
C	 0.4635308006	-2.09149589	 0.3762258471	 0.124676
C	 0.2377854722	-2.6108631808	 1.6337171486	 0.33255
O	-0.4318982986	-2.1034829102	 2.6924547528	-0.443053
N	 0.8442551812	-3.8264945429	 1.7302704547	-0.305296
C	 1.4763753469	-4.1155794222	 0.5304215045	-0.092952
C	 1.2598184065	-3.059764031	-0.3159340257	-0.263335
H	 1.4292919933	 1.3479388704	 0.4684372543	 0.11381
H	 0.8838668394	 1.4222354385	 2.1655040821	 0.127213
H	 1.805101136	 0.0051893007	 1.5830378635	 0.124592
H	-1.1414762227	-0.8841212514	-0.4359838317	 0.115014
H	 0.4804826446	-0.360627183	-0.9091840515	 0.101569
H	-0.6363789289	-1.1855362588	 2.4454214192	 0.308085
H	 0.8546891636	-4.388287813	 2.5635400263	 0.26385
H	 2.0148863821	-5.038875119	 0.3992109899	 0.115554
H	 1.6181002297	-2.9820969397	-1.3317804723	 0.089185
