19
gdb 117801	2.59689	1.03063	0.8902	4.9982	72.73	-0.2583	0.0298	0.2881	1385.0827	0.156754	-456.325396	-456.314495	-456.31355	-456.361852	37.67	
C	 0.0137436568	 1.3197757745	-0.015645723	-0.232481
O	 0.097191705	-0.0889095052	-0.0297835713	-0.237975
C	 0.6383139906	-0.6303552347	 1.1485849552	-0.084943
C	 0.6759583056	-2.1648380297	 0.9806902559	 0.025865
N	 1.34688728	-2.5984433089	-0.241841315	-0.512724
C	 1.3592392151	-2.7926390679	 2.2244929661	-0.075082
O	 1.4540405318	-4.1907016056	 2.1742253854	-0.412846
C	-0.7161747106	-2.6743647232	 0.9452761744	 0.309033
N	-1.7857227215	-3.1106752838	 0.9828007692	-0.348231
H	 1.0055256561	 1.7829337831	 0.1008681947	 0.109833
H	-0.4132377259	 1.6271996406	-0.9723782728	 0.139275
H	-0.6349673992	 1.677515551	 0.7973776923	 0.117304
H	 1.6684213073	-0.2686322546	 1.3110249085	 0.090165
H	 0.0354419348	-0.3478546066	 2.0265578959	 0.104935
H	 1.1214846065	-1.9468340216	-0.9873428428	 0.249902
H	 2.3522450203	-2.5904831204	-0.1043007542	 0.235389
H	 2.3877219585	-2.416083273	 2.2697242981	 0.113978
H	 0.8325504405	-2.4406033787	 3.1247315208	 0.106861
H	 0.5637139583	-4.553174775	 2.0918017825	 0.301742
