21
gdb 88693	3.19415	0.98315	0.82816	0.8864	90.28	-0.2365	0.05	0.2866	1451.6657	0.180938	-349.897902	-349.888315	-349.887371	-349.932799	36.381	
C	-0.1768590226	 1.5489510384	-0.0505775227	-0.402034
C	 0.0042600434	 0.0476736132	 0.010453336	-0.001193
C	 1.3442379602	-0.5898197959	-0.2690879744	-0.306156
C	 0.7631477212	-0.6427224492	 1.1255880506	-0.004636
C	 1.3975205091	 0.1130175178	 2.248338122	-0.009901
C	 0.7599138665	 0.1635725591	 3.607750911	-0.303128
C	 2.0475941541	-0.6276893591	 3.4192996466	-0.205096
C	 2.0318818048	-2.0586084319	 3.4942321438	 0.342392
C	 2.0287212691	-3.2602674131	 3.5623480397	-0.476512
H	 0.7218734839	 2.0832801445	 0.2713519928	 0.112326
H	-0.397075887	 1.8716968667	-1.074203221	 0.115579
H	-1.0041633789	 1.8789689474	 0.5876924489	 0.117046
H	-0.8575017557	-0.5072438478	-0.3529496972	 0.081736
H	 1.3890497234	-1.5033884069	-0.8516798928	 0.10994
H	 2.185857373	 0.0780342044	-0.4301372663	 0.105467
H	 0.3656194707	-1.6061271363	 1.4309210166	 0.0923
H	 1.9398797107	 1.005755221	 1.9519643972	 0.08754
H	 0.8143873977	 1.079891739	 4.1850499468	 0.115248
H	-0.1448702637	-0.4146569192	 3.7586718154	 0.125692
H	 2.9471921313	-0.1680459835	 3.818422336	 0.110361
H	 2.0268822588	-4.3199068886	 3.6249827309	 0.19303
