16
gdb 25815	4.00873	1.07734	0.85198	6.5927	86.96	-0.181	-0.0341	0.1468	1280.2421	0.126266	-434.12012	-434.111653	-434.110709	-434.153152	32.358	
N	 0.0265107335	 1.3860662593	 0.0448660804	-0.56024
C	 0.0020299993	-0.003904897	 0.003699255	 0.196246
N	 1.2755258761	-0.5680658671	-0.0674377371	-0.563659
H	 1.2819371008	-1.572121463	 0.0397200227	 0.258894
H	 1.9282680786	-0.1433981238	 0.582218777	 0.255224
C	-1.1522996958	-0.7260241622	 0.0300467019	 0.335008
C	-1.3313318869	-2.1531928924	-0.0155087311	-0.180592
C	-2.6552491899	-2.4436755576	-0.0488939289	-0.240593
C	-3.4242048729	-1.190413036	 0.027336111	 0.378841
O	-4.6213618782	-0.9967513178	 0.1236255405	-0.398697
N	-2.4492927829	-0.1741394023	-0.0108330899	-0.452221
H	 0.7991532708	 1.7754767912	-0.4815834445	 0.256896
H	-0.8428269517	 1.8188835535	-0.2355378268	 0.258198
H	-0.5220872489	-2.8700012671	-0.0689206993	 0.101187
H	-3.1218507343	-3.4154298796	-0.0993610353	 0.111177
H	-2.6916640177	 0.7190278221	 0.3873051445	 0.244331
