16
gdb 31312	2.14002	1.52349	0.91467	1.3324	83.72	-0.1993	-0.0001	0.1992	1224.1815	0.124121	-400.749113	-400.740334	-400.73939	-400.783119	32.452	
O	 0.0824277612	 1.2541104335	 0.6316140774	-0.417721
C	-0.0057621833	 0.0909482568	-0.1869016736	-0.224745
C	-1.3904815047	-0.4602668468	-0.085526274	 0.199391
C	-1.7313141398	-1.8027463547	 0.0382252639	 0.091722
N	-3.1118209662	-1.8723721622	 0.066639385	-0.317723
C	-3.6413207504	-0.6176324835	-0.025569917	-0.091421
C	-2.6000205336	 0.278661413	-0.1244082738	-0.209834
C	-0.9246022584	-2.9527445859	 0.12612708	 0.276471
C	-0.2410852985	-3.9437739622	 0.2032071224	-0.476023
H	 0.9381512439	 1.6617221498	 0.4669571964	 0.285551
H	 0.2216888149	 0.3455910984	-1.2358073636	 0.094604
H	 0.7174047042	-0.6790872491	 0.1208346685	 0.100974
H	-3.6297766404	-2.7290595018	 0.1560417942	 0.266874
H	-4.7083302366	-0.463117798	-0.0091574304	 0.123018
H	-2.6835031651	 1.351184157	-0.1969432024	 0.11
H	 0.3678405828	-4.8104247943	 0.2732898468	 0.188865
