17
gdb 57721	3.06356	0.93101	0.87324	3.9911	70.61	-0.2667	-0.0004	0.2663	1355.6324	0.133834	-455.180459	-455.170469	-455.169524	-455.216248	35.141	
C	-0.386963696	 1.470110794	-0.0894434366	-0.393649
C	-0.0599526878	-0.0221064443	 0.0064697516	 0.179315
O	 0.73813011	-0.1883078393	 1.1798175326	-0.449936
C	-1.3314565973	-0.9054148128	 0.1104787682	-0.178048
N	-2.0696290663	-0.6115914201	 1.316455651	-0.277526
C	-3.3551170181	-0.1560225353	 1.3046601936	 0.153619
O	-4.0283699262	 0.0042877634	 0.3105661023	-0.31479
C	 0.7060615076	-0.4549715159	-1.1827913426	 0.251267
N	 1.3072127888	-0.8338410853	-2.0941253154	-0.325523
H	 0.5361560465	 2.0491357261	-0.1490838046	 0.14641
H	-0.9998530202	 1.6745896091	-0.9697540802	 0.148284
H	-0.9367196569	 1.7718526938	 0.8040022065	 0.137675
H	 1.1496040879	-1.0603055206	 1.1529804497	 0.297245
H	-2.0001359306	-0.7296141633	-0.7345264918	 0.167453
H	-1.0266906359	-1.9596194902	 0.0897425355	 0.118038
H	-1.5672599204	-0.6418310257	 2.1900109897	 0.255813
H	-3.7253836352	 0.0458763362	 2.3283453505	 0.084352
