19
gdb 73675	2.20808	1.95046	1.44137	1.9479	75.3	-0.238	0.008	0.246	985.9069	0.160893	-423.043537	-423.035824	-423.034879	-423.075849	30.665	
O	 0.198969419	 1.4046518109	-0.1790302081	-0.482684
C	 0.0951037988	-0.0077390001	-0.0288400226	 0.359474
C	 0.6460601525	-0.6658992143	-1.3036328561	-0.264799
C	-0.2166472736	-1.9192408038	-1.431081729	-0.088199
O	-1.5132406532	-1.5276880808	-0.9853719358	-0.264787
C	-1.374848133	-0.5586332148	 0.0499786391	 0.05761
C	-1.5405124992	-1.1731090035	 1.4635804933	-0.288214
C	-0.1567244926	-1.0998931558	 2.059239869	-0.070055
C	 0.7172337819	-0.4896815077	 1.2589218701	-0.161174
H	 0.0021344569	 1.8032616111	 0.6755936806	 0.273277
H	 0.4679767917	 0.0153771642	-2.1408588425	 0.11935
H	 1.7165056092	-0.8778823127	-1.2458757432	 0.101228
H	-0.3127805105	-2.2860838434	-2.4565177909	 0.109361
H	 0.1804421077	-2.7378389336	-0.8101222117	 0.091441
H	-2.1013447374	 0.2357024315	-0.1439438029	 0.082044
H	-2.2721197718	-0.6307892818	 2.0765876118	 0.105217
H	-1.9106159556	-2.2005585946	 1.3752009632	 0.122994
H	 0.0769930243	-1.5044067314	 3.0391827365	 0.099732
H	 1.7667935051	-0.3187971393	 1.4747769391	 0.098183
