16
gdb 68519	2.65806	1.86364	1.47383	2.4812	68.12	-0.2342	-0.0171	0.2171	913.6277	0.124782	-437.831779	-437.824637	-437.823693	-437.863052	28.674	
O	-0.0667473176	 1.4157255696	 0.1092940346	-0.47834
C	 0.03517578	 0.0420491224	 0.0891474438	 0.287333
C	 0.962565433	-0.8214765803	 1.021493355	-0.338013
C	 0.6700925862	-1.9449355666	-0.0215438309	-0.12479
N	-0.8076035328	-2.1646535879	-0.0757923845	-0.118365
C	-1.5729332676	-1.7518198622	 1.1122069048	-0.250814
C	-1.2814782145	-0.7374033538	 0.0735566374	-0.058269
C	 0.7751570052	-0.7621736814	-1.0279808263	 0.388392
O	 1.3361903298	-0.4888378329	-2.0426855007	-0.32002
H	 0.6701413165	 1.7795563466	-0.3961111877	 0.29763
H	 2.0033055963	-0.4929875578	 0.9849592155	 0.122046
H	 0.656831245	-0.9670834264	 2.0553192707	 0.122009
H	 1.2589215291	-2.8538266362	-0.0981718574	 0.103324
H	-2.5716978213	-2.1781614665	 1.116085431	 0.130622
H	-1.1129924921	-1.7121304204	 2.092381377	 0.123025
H	-2.051774295	-0.3873625164	-0.6067514523	 0.11423
