23
gdb 100879	2.42365	0.96683	0.84222	4.2276	86.67	-0.2434	0.03	0.2733	1540.1849	0.204349	-384.482049	-384.470885	-384.469941	-384.518469	39.867	
C	 0.0439888381	 1.6195799462	 0.031032696	-0.394292
C	-0.0189952163	 0.0891010489	 0.0383191218	-0.184928
C	-1.4440844619	-0.4846882711	-0.0568295961	-0.000063
C	-2.1536251985	-0.1258429402	-1.3686569609	-0.39799
C	-1.4322678387	-2.0184587963	 0.1898293053	-0.109469
N	-2.7905054774	-2.5457406804	 0.298835825	-0.288337
C	-2.8615996134	-3.9375893041	 0.7337852824	-0.330152
C	-0.7191322536	-2.7213663364	-0.894429947	 0.324062
N	-0.1393599533	-3.2672554918	-1.7319389744	-0.346454
H	 1.0732472272	 1.9628999639	 0.1714207411	 0.118869
H	-0.3151064701	 2.039703008	-0.9128226311	 0.125086
H	-0.5613412765	 2.0469603128	 0.8387348585	 0.112682
H	 0.5817786379	-0.307694031	-0.7896352991	 0.12141
H	 0.4492978655	-0.280194868	 0.9601481904	 0.094391
H	-2.0262514098	-0.0710325915	 0.7807995959	 0.072002
H	-3.1266298363	-0.6183013158	-1.4288659654	 0.133449
H	-2.3076014244	 0.9530496224	-1.4488227932	 0.115863
H	-1.5596476421	-0.4486894945	-2.2303602414	 0.135681
H	-0.8396814559	-2.2049905229	 1.1066405829	 0.096828
H	-3.2987893471	-1.9559359456	 0.9493575958	 0.224342
H	-3.9103236996	-4.2207014083	 0.8548883509	 0.126287
H	-2.4260561554	-4.5837177747	-0.0342309522	 0.15177
H	-2.3341252484	-4.1377736397	 1.6829799649	 0.098964
