16
gdb 48203	2.07229	1.42182	0.89921	1.8798	69.68	-0.2665	-0.0615	0.205	1233.0094	0.122875	-437.873718	-437.864794	-437.86385	-437.908798	30.327	
O	 0.1626522312	 0.0267790582	 0.4579222047	-0.22991
C	 0.1356644267	 1.0924521898	-0.0933292282	 0.157535
C	 1.3453374979	 2.0393849551	-0.1060099067	-0.255877
C	 1.3424874929	 2.8759016505	-1.3044268791	 0.2675
N	 1.3107551769	 3.5415647793	-2.2485559365	-0.305449
C	 1.3183584145	 2.9063789468	 1.1782050867	-0.04344
C	 1.6813277433	 2.1344951269	 2.4666650602	-0.098373
O	 2.9834015378	 2.7537048958	 2.5106257857	-0.267092
C	 2.6288552126	 3.674658048	 1.4613298081	-0.088537
H	-0.7777012095	 1.4829689878	-0.5883004963	 0.1173
H	 2.2495585098	 1.4209761697	-0.0912958291	 0.160117
H	 0.4029346682	 3.5001807097	 1.2097419693	 0.105664
H	 1.0673900292	 2.4044659672	 3.3351332058	 0.110569
H	 1.7350175411	 1.0445877607	 2.3860669495	 0.133818
H	 3.3712554365	 3.6990525434	 0.6558277077	 0.12191
H	 2.4747905609	 4.6936282411	 1.8384398082	 0.114266
