13
gdb 132122	3.10237	1.47271	1.00176	4.3955	67.33	-0.2179	-0.0652	0.1527	1073.0531	0.089385	-494.044835	-494.037189	-494.036245	-494.077374	28.062	
N	 0.0534050414	 1.466371539	 0.1186395968	-0.603764
C	 0.0099308608	 0.0552876106	 0.0401054119	-0.033944
C	-1.1139058785	-0.6952417042	 0.050913781	 0.378315
F	-2.324380933	-0.1828226854	 0.0893946791	-0.040028
O	-1.1414523518	-2.0133663023	 0.0758242882	-0.206416
C	 0.0731350878	-2.7441165431	-0.0103591991	 0.436176
N	-0.0785126891	-3.9948065688	-0.0876399777	-0.519817
N	 1.2559636595	-2.0272526466	 0.0151783002	-0.311946
C	 1.2096716558	-0.7338662354	 0.0490350341	 0.019668
H	 0.4648860618	 1.88482896	-0.7092341254	 0.253654
H	-0.8710287589	 1.8600940886	 0.2456003959	 0.252993
H	 0.8430956332	-4.426088626	-0.1255571049	 0.240535
H	 2.160274411	-0.2008324363	 0.0869401498	 0.134573
