18
gdb 95872	2.43166	1.34558	1.08987	3.5882	71.59	-0.2619	0.0309	0.2928	1152.7075	0.148955	-439.102147	-439.093763	-439.092819	-439.135142	31.611	
O	-0.0730582603	 1.466118585	 0.0958989871	-0.42678
C	 0.040397011	 0.0540743558	 0.0297031805	 0.094917
C	 0.7351972802	-0.5038942349	 1.2808102149	-0.101642
O	 0.7471793569	-1.9221050203	 1.2849673595	-0.23443
C	-0.5505026489	-2.4690115856	 1.2978985025	-0.078669
C	-1.3619225568	-2.0528783213	 0.0492739474	-0.180942
C	-1.3765223591	-0.5097897679	-0.0641381478	-0.223374
C	-0.8156149591	-2.6748633765	-1.1614665877	 0.284189
N	-0.3947765593	-3.1644858959	-2.1200945544	-0.328008
H	 0.8037764641	 1.8464399071	-0.0175466853	 0.289733
H	 0.610463093	-0.258795614	-0.8577013741	 0.099265
H	 1.7823488948	-0.1879894455	 1.3222606426	 0.106163
H	 0.2207824284	-0.1108142243	 2.1736771029	 0.096897
H	-0.4336921395	-3.5540443084	 1.3447684754	 0.130737
H	-1.1076893359	-2.1359489215	 2.1893788352	 0.098342
H	-2.3898383245	-2.416303657	 0.1668580815	 0.129099
H	-1.965154933	-0.106612618	 0.7682936625	 0.116124
H	-1.8541489823	-0.1873459768	-0.9925970128	 0.128378
