23
gdb 102573	2.18846	1.16741	0.88132	2.3374	82.72	-0.2398	0.0757	0.3155	1431.4891	0.203154	-425.400496	-425.389634	-425.38869	-425.436776	39.303	
C	-0.2277774262	 1.0783211633	 0.6652564055	-0.38636
C	-0.1158797654	-0.3232895289	 0.0619695609	-0.173582
C	 0.7131029008	-0.3581917004	-1.2260053799	 0.108178
O	 2.0272407317	 0.0566500966	-0.8718596762	-0.252993
C	 2.8096284806	 0.5492855772	-1.9386161738	-0.234605
C	 0.7260058728	-1.7474872486	-1.8436813536	-0.019552
C	-0.4818558582	-2.2499694045	-2.6139471312	-0.335779
C	 0.8142999097	-1.9712707	-3.3268959432	 0.079121
O	 0.919648941	-0.8363433634	-4.1404381225	-0.41819
H	 0.7645355031	 1.4842067254	 0.8756758693	 0.131858
H	-0.7334180894	 1.7654200183	-0.0231136979	 0.105799
H	-0.7994380767	 1.0624028324	 1.5983511955	 0.105204
H	 0.3492155975	-1.0054250722	 0.7848343418	 0.098585
H	-1.1115464449	-0.7254107589	-0.1562094724	 0.093286
H	 0.2875577687	 0.3500592745	-1.9542820122	 0.069884
H	 3.7718134561	 0.8468230191	-1.5127050593	 0.113832
H	 2.9788343883	-0.2009026371	-2.7207551175	 0.121221
H	 2.342728007	 1.4268949566	-2.4105292811	 0.102309
H	 1.2439845313	-2.4778255602	-1.2274850387	 0.091647
H	-0.8102380225	-3.2749259205	-2.4803139141	 0.111271
H	-1.2818307059	-1.5344602101	-2.7800960443	 0.113495
H	 1.4011885016	-2.8248483489	-3.6661500388	 0.086428
H	 0.4002288491	-0.9913869996	-4.9361964663	 0.288942
