17
gdb 49934	3.75974	0.85547	0.82801	1.8342	74.67	-0.2478	-0.0351	0.2126	1419.6881	0.132836	-421.778296	-421.769089	-421.768145	-421.813911	32.527	
O	-0.4358650879	 0.5258027062	 0.8706536239	-0.235272
C	 0.5165232786	 0.6832354339	 0.1518680852	 0.133997
C	 1.2720555568	 1.9898337281	 0.0094505507	 0.06335
C	 1.3789351569	 2.8838963685	 1.2554572376	-0.330717
C	 2.8954815883	 2.6128689025	 1.1384804416	 0.155988
C	 3.5669085257	 1.8933976684	 2.3094189484	-0.364431
C	 4.9493640474	 1.5249339813	 2.0339404518	 0.300133
C	 6.0905017965	 1.2383742257	 1.7910567752	-0.43343
O	 2.6956316332	 1.7451537944	-0.0089625715	-0.305429
H	 0.9375781498	-0.1406416998	-0.4664620059	 0.096352
H	 0.9342843385	 2.4933414357	-0.9094872173	 0.103896
H	 1.0717154977	 3.9210555778	 1.1256986387	 0.119244
H	 0.8907849799	 2.4647834604	 2.1374136838	 0.132321
H	 3.4897110138	 3.4878353668	 0.8510930448	 0.09501
H	 3.5228316482	 2.5561159188	 3.1847015516	 0.134688
H	 2.9796493083	 1.0010188499	 2.5600012735	 0.135769
H	 7.0971237683	 0.9753319713	 1.579338418	 0.198531
