14
gdb 66499	3.62173	1.95042	1.68431	2.6592	63.28	-0.2087	-0.0709	0.1377	790.127	0.098599	-436.503053	-436.496631	-436.495687	-436.533187	27.174	
O	-0.1208606218	 1.3788844403	 0.1543477783	-0.457968
C	 0.0237815883	 0.0291403381	 0.012366083	 0.437395
C	-1.044217248	-1.0362411746	 0.0509351917	-0.152964
C	-0.2078930087	-0.8344437806	-1.2075474223	-0.20835
C	 0.953947327	-1.8229996416	-0.8945846041	 0.28354
N	 2.0862880234	-1.4040000653	-0.4675107632	-0.342322
C	 1.1091514421	-0.9184882018	 0.6359518378	-0.145438
C	-0.1163459264	-2.0744293888	 0.7198437739	 0.050045
O	 0.3316890428	-2.9801519265	-0.2799091419	-0.249413
H	 0.6143491195	 1.8125853771	-0.2960899315	 0.301913
H	-2.12185774	-0.9617139557	 0.0941299453	 0.11298
H	-0.5698365351	-0.5346274748	-2.1766568875	 0.126802
H	 1.7031745102	-0.7067967662	 1.5189495469	 0.131287
H	-0.3482298033	-2.5706856294	 1.6565622334	 0.112495
