16
gdb 22947	4.35646	0.85012	0.73851	1.6081	75.81	-0.2501	-0.0107	0.2393	1467.9467	0.121268	-437.779516	-437.770371	-437.769427	-437.814101	32.822	
O	-0.194772782	 1.407723823	-0.0645127033	-0.386666
N	 0.0259267461	 0.0299995432	 0.0832249354	-0.224265
C	-1.0586318344	-0.6124809826	 0.0267828255	 0.344281
C	-2.5301732907	-0.3588644956	-0.1765685316	-0.163176
O	-2.7660109987	-1.7877958855	-0.141453994	-0.289157
C	-1.3657474792	-2.0899564539	 0.0960559865	 0.046925
C	-0.7392592879	-2.9801882744	-0.9838104499	-0.363001
C	-1.2370119886	-4.3484962207	-0.9427301246	 0.302298
C	-1.6532256129	-5.4740861002	-0.8869668109	-0.436673
H	 0.6964031115	 1.7684119182	-0.0000928434	 0.312702
H	-3.0346508058	 0.1735364076	 0.6394961212	 0.131102
H	-2.8126094537	 0.0972735842	-1.1332971041	 0.132721
H	-1.2233125908	-2.5442807443	 1.0850556837	 0.112136
H	-0.9329171664	-2.5321209526	-1.9652721615	 0.136263
H	 0.3483656986	-2.9662528674	-0.8363824326	 0.146328
H	-2.0217964451	-6.4689853188	-0.8473779164	 0.198183
