18
gdb 90527	4.69386	1.03879	0.95558	3.6836	77.29	-0.2361	0.0136	0.2497	1244.8601	0.148965	-398.089421	-398.081232	-398.080288	-398.122258	31.238	
C	 0.3329980171	 1.6027080992	-0.1538909174	-0.390912
C	 0.0641403171	 0.1190933269	-0.0015519317	 0.065006
N	 0.9600035764	-0.7822085397	-0.7970347146	-0.33337
C	 1.167143229	-1.6770170311	 0.3522750262	-0.025043
C	 2.5220997402	-1.3818420338	 1.079054406	-0.100445
N	 1.8766926	-0.2157598346	 1.7510994246	-0.320841
C	 0.5252830088	-0.6198225218	 1.2870462766	-0.03245
C	 2.9470766289	-2.4433510688	 1.9881382538	 0.258111
N	 3.2587636456	-3.27861767	 2.7254085907	-0.323594
H	 1.3666277352	 1.8251607841	 0.1198874765	 0.139448
H	 0.1666863725	 1.9198338807	-1.1885371954	 0.114647
H	-0.3366031096	 2.1849682336	 0.4890629392	 0.109639
H	-0.9991301836	-0.1009994716	-0.1772282161	 0.068769
H	 0.5312784716	-1.2169467129	-1.6047750015	 0.223399
H	 0.8608516561	-2.7189416106	 0.258382287	 0.095289
H	 3.3460547671	-1.1047777899	 0.4143484992	 0.130079
H	 1.9978085182	-0.1953584299	 2.756251023	 0.238617
H	-0.2132818107	-0.8248165099	 2.0625550941	 0.083652
