17
gdb 128770	3.42669	1.03181	0.80591	5.0851	72.52	-0.2078	0.0089	0.2167	1387.986	0.13682	-451.307598	-451.298491	-451.297547	-451.342738	31.791	
C	-0.141689266	 1.3609886928	-0.0520009185	-0.228139
O	-0.1789775104	-0.037878802	 0.1275344707	-0.247689
C	 0.812417298	-0.5056795708	 1.0196978451	-0.180764
C	 0.7412845267	-1.993872128	 1.0494089189	 0.283853
C	 1.1852537644	-2.9638985557	 1.9261553079	 0.206983
N	 1.8940687462	-2.8261926989	 3.1232080695	-0.599301
N	 0.8938937942	-4.187994345	 1.4069154073	-0.253898
N	 0.2923430657	-4.0358426578	 0.2539964983	-0.128325
N	 0.2024832396	-2.7218256065	 0.0359745712	-0.215142
H	 0.8259245237	 1.6925065853	-0.4585615078	 0.113508
H	-0.9327275715	 1.6181378323	-0.7595187679	 0.135579
H	-0.3212010804	 1.8947529181	 0.8935171926	 0.112938
H	 1.8101452655	-0.1646332881	 0.6896209863	 0.115696
H	 0.6604588448	-0.0925898804	 2.0316690933	 0.10279
H	 1.4799808205	-2.1541956953	 3.7581005364	 0.24327
H	 1.9649288337	-3.7254980711	 3.5848850234	 0.254763
H	-0.2757300749	-2.361871319	-0.7746553266	 0.283879
