20
gdb 94988	2.76777	1.75423	1.52533	1.7584	76.84	-0.2302	0.0759	0.3062	968.6962	0.173421	-403.104996	-403.097597	-403.096653	-403.136432	30.092	
C	-0.2048131889	 1.5686898153	 0.0281300379	-0.407064
C	 0.035397302	 0.0590217871	-0.0358541862	 0.11647
O	 0.6886419304	-0.338461354	-1.2439267236	-0.268632
C	 2.0728687748	-0.0410767356	-1.3435508321	-0.116183
C	 2.8729630812	-0.1512686706	-0.0596180465	-0.014173
C	 2.2445767865	 0.0672424363	 1.2540741433	-0.069157
C	 0.8112689513	-0.4803448332	 1.1683030481	-0.056089
C	 1.4704007941	-1.8651817399	 0.9368795551	-0.170572
N	 2.8583359919	-1.2764216014	 0.9058452879	-0.162637
H	 0.7353846104	 2.1218104497	 0.120007818	 0.121698
H	-0.7169347118	 1.9091391059	-0.875864522	 0.125373
H	-0.8273952943	 1.820544308	 0.8930377146	 0.114843
H	-0.9327804161	-0.4527506924	-0.0924281054	 0.083803
H	 2.4654697061	-0.7271983534	-2.1027802132	 0.116663
H	 2.2234081115	 0.983230518	-1.7248026051	 0.097388
H	 3.8879539294	 0.222623699	-0.1765950343	 0.098639
H	 2.6510323977	 0.706156927	 2.0311067664	 0.089432
H	 0.228179922	-0.3972471316	 2.0868592142	 0.076333
H	 1.3998620545	-2.5219674253	 1.8064552485	 0.107142
H	 1.1838464573	-2.4131794788	 0.0365510644	 0.116722
