17
gdb 36273	4.55056	0.99069	0.9205	4.6977	76.19	-0.2352	0.0266	0.2619	1262.1394	0.136634	-380.777914	-380.77025	-380.769306	-380.810733	29.45	
N	 0.0504891102	-1.1730033662	-0.4460651797	-0.297497
C	-0.0082590824	-0.0705408072	-0.1056750304	 0.253357
C	-0.0734444092	 1.3294084049	 0.3150621214	-0.399453
C	 1.3045891772	 2.0053237869	 0.204301317	 0.007592
C	 1.6835119046	 3.3973393102	-0.1336560245	-0.071116
C	 0.8918426185	 4.5645053989	 0.4799941417	-0.065874
C	-0.2702603748	 4.140700214	 1.3316037167	-0.302484
C	 1.1378698627	 3.9170483922	 1.821757631	-0.007018
N	 1.9950946621	 2.8102561323	 1.2334664602	-0.162168
H	-0.822063782	 1.8293786074	-0.3069610513	 0.170263
H	-0.4336213276	 1.3552869636	 1.3476344517	 0.175515
H	 2.0398511407	 1.3056507771	-0.1892068651	 0.132576
H	 2.4907537871	 3.5910308378	-0.8345118969	 0.108056
H	 1.058311627	 5.5873746128	 0.171566157	 0.104939
H	-0.7405307261	 4.9765781132	 1.8432222509	 0.12332
H	-0.9752900857	 3.3719224784	 1.0567775301	 0.116018
H	 1.4980975776	 4.3368223639	 2.7514473803	 0.113974
