16
gdb 128051	4.37055	1.07213	0.86566	0.7106	75.31	-0.2298	-0.0463	0.1835	1289.028	0.1249	-434.066949	-434.058169	-434.057224	-434.102069	30.516	
C	 0.0700311944	 1.3641515165	 0.0981649509	-0.309695
N	-0.0830158781	-0.074383949	 0.0626799383	-0.308849
C	-1.3152417384	-0.6535984635	 0.0440331794	 0.255451
N	-2.3819070352	 0.0616443907	-0.0072115467	-0.555013
C	-1.2970643336	-2.1339163	 0.0779647718	 0.43832
C	-2.2808240881	-3.0776785167	 0.0600207214	-0.349544
C	-1.5691693014	-4.3017791901	 0.1231989119	 0.035667
N	-0.2712739184	-4.1230416192	 0.1760339897	-0.1338
O	-0.0961426035	-2.7446552652	 0.1467663137	-0.233165
H	 1.1338570569	 1.6058532155	 0.060232145	 0.120897
H	-0.434940573	 1.8230468052	-0.7572561537	 0.147483
H	-0.3670628976	 1.7955662789	 1.0067965231	 0.13636
H	 0.7182941429	-0.6634053416	 0.2019823222	 0.265987
H	-3.2129838724	-0.5231617386	-0.0382098504	 0.215344
H	-3.3461421867	-2.930805229	 0.0102088829	 0.132822
H	-1.9584607479	-5.309961744	 0.1324372706	 0.141734
