21
gdb 68889	2.33892	1.81982	1.24997	0.9431	84.18	-0.2145	0.0175	0.232	1088.9579	0.181975	-387.087255	-387.078483	-387.077539	-387.119885	34.768	
C	-0.0757795712	 1.463759727	-0.093596913	-0.446893
C	 0.0830628477	-0.0350412484	-0.0108061635	 0.397375
C	 1.4366561484	-0.6673075021	-0.1903371646	-0.395848
C	 0.7407711091	-0.709974434	 1.1825784032	 0.225273
C	 1.3205646611	 0.0770218143	 2.3415865589	-0.480055
C	 0.1269186923	-2.0144011998	 1.549215726	-0.080047
C	-0.7519601356	-2.6365703586	 0.7653086386	-0.115781
C	-1.1917238166	-2.0266580303	-0.5354327454	-0.137676
O	-1.0792746104	-0.6116060806	-0.5512500015	-0.302056
H	 0.8027159711	 1.9863293448	 0.2883644708	 0.114592
H	-0.2243523337	 1.7601369863	-1.1366998288	 0.126198
H	-0.9519805631	 1.787113542	 0.4769550882	 0.125235
H	 1.5267596422	-1.6060050926	-0.7251718067	 0.116901
H	 2.2888787196	-0.0040345742	-0.3055587532	 0.1076
H	 1.8262523033	 0.9876745769	 2.0123014075	 0.115348
H	 0.5436883759	 0.3654784661	 3.0586808541	 0.121738
H	 2.0593201006	-0.5292091574	 2.8799901235	 0.116527
H	 0.4260995615	-2.4497970673	 2.4999072119	 0.084829
H	-1.1749038775	-3.5982148543	 1.0389356175	 0.09233
H	-0.6356585278	-2.4651107369	-1.3830764702	 0.099566
H	-2.2515711568	-2.2335916711	-0.7210325034	 0.114844
