15
gdb 28299	5.32638	1.32305	1.0612	2.6276	75.02	-0.1709	0.0361	0.207	1062.7491	0.116273	-413.032649	-413.025407	-413.024463	-413.063841	28.681	
N	 0.0484861896	 1.3684856363	 0.1539078837	-0.595708
C	-0.0308348985	-0.0221882998	 0.0570218909	 0.293197
C	-1.166333623	-0.811967656	 0.0373636488	-0.258192
N	-0.6696849418	-2.1179494186	 0.0086095703	 0.010964
C	-1.0170511798	-3.4608432889	-0.0285477574	-0.138728
C	 0.1474370203	-4.1678508611	-0.0460860518	-0.094521
N	 1.2074636285	-3.2666704439	-0.0223415016	-0.416755
C	 0.6933437583	-1.9996052618	 0.0114160162	 0.503504
N	 1.1363886135	-0.7595385311	 0.0368855035	-0.45706
H	 0.9494171763	 1.6978455554	-0.167676379	 0.247019
H	-0.6975910124	 1.8503809518	-0.3289008127	 0.239495
H	-2.2166876493	-0.5857145248	 0.0610274172	 0.112058
H	-2.0364485203	-3.803828481	-0.0362923249	 0.13954
H	 0.310479071	-5.230770924	-0.0725808246	 0.139525
H	 2.1851684475	-3.4911312325	-0.0248379686	 0.275663
