21
gdb 39491	2.16563	1.85988	1.25521	1.4816	83.72	-0.2363	0.0089	0.2453	1082.24	0.185235	-387.081493	-387.073654	-387.07271	-387.11339	31.754	
C	-0.4885508989	 1.5554832548	 0.1090314081	-0.184553
C	 0.6046027423	 2.6235124312	-0.062162667	-0.177218
C	 1.3776750247	 2.637408037	-1.3996743722	-0.242356
C	 2.6219141148	 1.7581242495	-1.4526864532	 0.048253
O	 2.8301809136	 0.8056621596	-0.4082492798	-0.242728
C	 2.5792139428	 0.297037494	-1.7229934483	 0.012473
C	 1.3137904605	-0.4070565818	-2.0188603232	-0.050724
C	 0.2128226424	-0.4860388999	-1.267309513	-0.079093
C	-0.0209342345	 0.0797671182	 0.1118720565	-0.247564
H	-0.9896328421	 1.7530795956	 1.064691139	 0.092148
H	-1.2528915859	 1.6902813902	-0.6681831834	 0.090018
H	 0.1162753915	 3.5993448105	 0.0445844056	 0.090696
H	 1.3204247677	 2.5452042087	 0.7634939468	 0.110731
H	 0.7000540495	 2.365245696	-2.2182255897	 0.107979
H	 1.7032055527	 3.6636121985	-1.6005696346	 0.098797
H	 3.5394634369	 2.2733235039	-1.7415413513	 0.089426
H	 3.4628779766	-0.1380473779	-2.193180827	 0.090833
H	 1.3041339977	-0.8756424744	-3.0015357022	 0.083969
H	-0.6371210713	-1.0076266817	-1.7046836852	 0.088114
H	 0.8802782794	-0.007015592	 0.7211621322	 0.130997
H	-0.7995799904	-0.52073485	 0.5955319218	 0.089802
