21
gdb 75041	2.58634	1.44342	1.01586	0.44	94.53	-0.2035	-0.0187	0.1848	1234.3352	0.18393	-349.962321	-349.953647	-349.952703	-349.995671	33.683	
C	 0.1423366757	 1.562377182	 0.0284255721	-0.475129
C	 0.0117525804	 0.0667655208	-0.0513947958	 0.294925
C	 0.0216052705	-0.5742783663	-1.232542438	-0.141612
C	-0.1087484887	-1.9918660849	-1.5720136794	-0.051297
C	 0.0518695023	-3.1599554768	-0.9222265493	-0.078388
C	 0.4660481862	-3.5199632887	 0.4937438324	-0.324393
C	 1.4706151746	-2.6116210843	 1.1647455762	-0.042918
C	 1.2119429805	-1.3663622764	 1.5572813451	-0.040203
C	-0.0937854295	-0.6690038899	 1.2752597489	-0.363372
H	 1.014381569	 1.8507653054	 0.6308023282	 0.125231
H	 0.2465949581	 2.019130514	-0.9591030213	 0.120623
H	-0.7313762734	 2.0074434111	 0.5233732326	 0.124019
H	 0.09249129	 0.0605428954	-2.114895918	 0.074305
H	-0.3984631771	-2.1181174855	-2.6154117925	 0.080687
H	-0.1645956484	-4.0415252099	-1.5245567311	 0.086475
H	-0.4383137935	-3.6152873984	 1.1143486045	 0.12122
H	 0.8825085478	-4.5322851241	 0.4583858756	 0.103313
H	 2.4659619246	-3.0203582775	 1.3193819351	 0.087222
H	 1.9981329966	-0.7726722838	 2.0181300698	 0.085493
H	-0.3389339555	 0.0371676711	 2.075377691	 0.096647
H	-0.9108453401	-1.3958304734	 1.2214497239	 0.117152
