16
gdb 10648	3.08745	1.65359	1.30701	2.5112	67.72	-0.2288	0.0365	0.2653	959.0454	0.128566	-383.679631	-383.671252	-383.670308	-383.712016	31.775	
O	 0.7709027757	-0.1309941272	-0.6624114295	-0.418629
C	-0.1777272601	 0.2896349406	 0.3181980157	-0.172888
C	-1.5517859097	-0.3756957004	 0.1741722955	 0.039226
C	-2.0261674795	-0.8360972677	-1.2121202341	-0.369111
C	-1.6050978958	-1.8592769955	-0.1973958003	 0.129563
O	-0.4495114247	-2.6128154694	-0.3284152146	-0.431314
C	-2.5259360198	 0.13589632	 1.09388593	 0.258803
C	-3.3216603215	 0.5798424063	 1.880577911	-0.425819
H	 0.5822741593	 0.3322840164	-1.4843172697	 0.297069
H	 0.2533468104	 0.013804321	 1.2851483633	 0.13932
H	-0.2928369714	 1.3804298961	 0.3037217212	 0.118907
H	-3.077379632	-0.7169245501	-1.4472459021	 0.128452
H	-1.3518091544	-0.6673938904	-2.045705595	 0.09984
H	-2.3883561894	-2.442415427	 0.2746904342	 0.118466
H	 0.2548185704	-2.0181448181	-0.6276057179	 0.296228
H	-4.0300562774	 0.9612836152	 2.5733928523	 0.191889
