19
gdb 88061	2.40249	1.25983	0.99332	3.5078	77.23	-0.2488	-0.0289	0.2199	1258.5723	0.156756	-423.010312	-423.001139	-423.000195	-423.045041	33.272	
C	-0.0657835234	 1.5203981684	-0.1345439163	-0.418211
C	 0.0295705468	 0.0249898063	 0.0091891415	-0.023926
O	 1.3465656817	-0.5534726878	-0.0573735677	-0.282515
C	 0.6533872143	-0.6335218614	 1.1662019152	 0.414105
C	 1.13164345	-0.0443135634	 2.4929810901	-0.317232
C	 0.395053956	-1.2138438786	 3.2085578791	-0.25137
C	 0.2520406188	-1.9662055782	 1.8450768148	-0.155571
C	-1.106441334	-2.5148165855	 1.5089883467	 0.152713
O	-1.3226971066	-3.5921380773	 1.0164146076	-0.249678
H	 0.6927769767	 2.0226695106	 0.4708632327	 0.129557
H	 0.081081064	 1.8137746632	-1.1789801051	 0.13623
H	-1.0552517761	 1.872685134	 0.1767138459	 0.124065
H	-0.7162033103	-0.5455060819	-0.5484536898	 0.102393
H	 2.2190842106	-0.1107220831	 2.5877966709	 0.12394
H	 0.8189083456	 0.9736978321	 2.737577964	 0.110816
H	 0.9430646653	-1.7447986472	 3.9871853379	 0.120089
H	-0.5774160159	-0.9108974119	 3.607396077	 0.11231
H	 1.0118459901	-2.7356634817	 1.6894544974	 0.106298
H	-1.9440743334	-1.8167023164	 1.7519458281	 0.065988
