20
gdb 90703	3.06399	1.40822	1.18076	1.06	79.75	-0.2133	0.0205	0.2338	1114.7438	0.171849	-403.125567	-403.117289	-403.116345	-403.15816	32.458	
C	 0.0042307327	 1.6001430395	-0.0494960525	-0.401802
C	 0.0608019869	 0.072027497	-0.0321026863	-0.000779
C	 0.7611715146	-0.5782788199	-1.2164496674	-0.087248
C	 1.5624966198	-1.5649225325	-0.8201636212	-0.074639
C	 1.4963260772	-1.7192110487	 0.6799830085	-0.064057
C	 2.7288060874	-1.2709748306	 1.4926017152	 0.114461
O	 3.9515149289	-1.4105427883	 0.8119432797	-0.426287
C	 2.0572855721	 0.1256719432	 1.5438096062	-0.222977
N	 0.7602334863	-0.4983218373	 1.1434318094	-0.110081
H	 0.9935033784	 2.0522793232	-0.1605715389	 0.119718
H	-0.6103613383	 1.9380843753	-0.8894819264	 0.11584
H	-0.4482740745	 1.9777188667	 0.8725082034	 0.123836
H	-0.9814190522	-0.2853415796	 0.0012229253	 0.082861
H	 0.5782870871	-0.2834079895	-2.2441870798	 0.092936
H	 2.1524993637	-2.2112504242	-1.4575533818	 0.104632
H	 1.0497178943	-2.6780615683	 0.9753174003	 0.07655
H	 2.7591093525	-1.7536040838	 2.4775885358	 0.074683
H	 4.6610510778	-1.1330200587	 1.3995294085	 0.285723
H	 2.0231533573	 0.650550389	 2.5037333662	 0.093313
H	 2.5052353981	 0.7778589076	 0.7849407458	 0.103319
