9
gdb 130582	3.89033	1.36214	1.00889	0.7842	56.82	-0.3478	-0.1525	0.1953	1013.5861	0.041642	-479.78426	-479.777337	-479.776392	-479.816642	23.049	
O	 0.043884551	-0.0707775453	 0.0025705621	-0.218603
C	 0.0107713442	 1.1194169435	 0.0062703346	 0.405523
C	 1.187737851	 1.9801876132	 0.0006558911	 0.27959
N	 2.1704304654	 2.5870618833	-0.0043418356	-0.281343
N	-1.2174290598	 1.8536753194	 0.0164019841	 0.04367
N	-1.2981899794	 3.1938026789	 0.0210566985	-0.072234
N	-2.5489527239	 3.4556834733	 0.0288835944	-0.049513
N	-3.2544584186	 2.2725587268	 0.0311909065	-0.04715
N	-2.4355335099	 1.2903960968	 0.0229516944	-0.059941
