12
gdb 130858	7.53511	0.88385	0.79106	4.5704	74.67	-0.2775	-0.0915	0.186	1316.2763	0.07613	-435.449352	-435.441779	-435.440835	-435.481822	27.108	
O	-0.0018776239	-0.0435100196	-0.0006213435	-0.243014
C	 0.0023926517	 1.1613716541	 0.0087425615	 0.072901
C	 1.2151716107	 1.994037941	 0.0024203815	 0.341456
C	 1.3708870784	 3.3477854382	 0.0117098824	-0.403002
C	 2.7844263729	 3.5251953966	-0.0024419784	 0.240602
N	 3.4072845259	 2.3539487842	-0.0179958902	-0.173695
O	 2.4240617289	 1.3978448258	-0.0151693328	-0.178745
C	 3.5087647557	 4.7428494961	-0.0004956856	 0.252915
C	 4.0908580852	 5.7944018259	 0.0016860458	-0.367671
H	-0.9314496068	 1.7614388546	 0.023719595	 0.098402
H	 0.6090104141	 4.10888553	 0.0260600412	 0.150806
H	 4.6177029471	 6.7170020032	 0.003425953	 0.209046
