16
gdb 15176	8.55301	0.67522	0.65396	1.8244	72.89	-0.2553	0.0146	0.2699	1697.1419	0.127981	-383.664021	-383.655046	-383.654102	-383.699606	29.814	
C	-0.0823574249	 1.328342759	 0.3119214378	-0.219615
O	-0.1487966208	-0.0750861342	 0.421494732	-0.227995
C	-1.2008962734	-0.6171688821	-0.3521095705	-0.203497
C	-1.2422077351	-2.0648812539	-0.2046861057	 0.027955
C	-1.3001447546	-3.2619083694	-0.0891230004	 0.167847
C	-1.35736784	-4.6930227386	 0.0209099679	-0.123096
C	-0.9385392138	-5.389660593	 1.2541842947	-0.157799
O	-2.3158353936	-5.2558828906	 0.9340198563	-0.214027
H	 0.750313915	 1.6610836616	 0.9352090336	 0.132748
H	 0.0979100086	 1.6504627914	-0.7261848125	 0.105756
H	-1.0076896661	 1.8111087868	 0.6647081376	 0.106721
H	-2.1699501816	-0.1881169474	-0.0415726783	 0.120697
H	-1.0710810729	-0.3564597897	-1.4173817477	 0.117366
H	-1.2767473682	-5.2401332145	-0.9177129476	 0.117648
H	-0.5284982038	-6.3960625095	 1.1782429383	 0.120117
H	-0.5909021046	-4.7976980958	 2.0984247446	 0.129173
