12
gdb 25313	2.32249	1.60665	0.94968	4.097	72.3	-0.2747	-0.0954	0.1792	1110.239	0.078186	-435.537127	-435.529853	-435.528909	-435.569398	25.867	
O	 0.0152338324	-0.0814285756	-0.0019511862	-0.258282
C	-0.006161716	 1.1264741663	 0.0088565109	 0.060085
C	 1.1857995384	 1.972442985	 0.0029327816	 0.18976
C	 1.3246895141	 3.3468185345	 0.0135249051	 0.105454
C	 2.7301353932	 3.6128558224	-0.0001284128	-0.289305
C	 3.328537321	 2.3909009851	-0.0173023958	 0.016538
O	 2.4115287904	 1.3990547569	-0.0157367396	-0.145185
C	 0.2728305656	 4.2964216605	 0.0336463513	 0.213953
N	-0.5789121956	 5.080361193	 0.0500029236	-0.329151
H	-0.94932718	 1.7091062519	 0.0244721878	 0.112707
H	 3.2082166187	 4.5784444528	 0.0028289237	 0.153718
H	 4.3595780779	 2.0772942272	-0.0315633295	 0.16971
