9
gdb 117	43.05987	2.11932	2.04564	3.783	45.67	-0.2642	-0.0592	0.2051	568.7849	0.065532	-229.928448	-229.922366	-229.921422	-229.958956	18.156	
C	-0.0004645705	 1.4747188632	 0.0100767358	-0.500873
C	-0.0035229441	 0.0230157422	 0.002308074	 0.105016
C	-0.0246729495	-1.1843840678	-0.003978951	 0.008505
C	-0.0050095513	-2.6235697262	-0.012033933	 0.024925
O	-0.9906342829	-3.3253816673	-0.0029857299	-0.228791
H	 1.018318224	 1.8750704279	 0.0046827895	 0.160571
H	-0.5259673947	 1.8663688134	-0.867658332	 0.167113
H	-0.5131016683	 1.8570648419	 0.8994314477	 0.167092
H	 1.0138620273	-3.0623013972	-0.0276913909	 0.096442
