23
gdb 122146	3.27639	0.67582	0.58723	2.7904	79.68	-0.2494	0.0648	0.3142	1937.8172	0.203786	-462.548446	-462.537259	-462.536315	-462.585677	39.505	
C	 0.0799252355	 1.5153495683	-0.070027294	-0.385966
C	 0.0302552075	-0.0028982294	-0.0556356199	-0.028769
O	 0.7023518108	-0.4877940939	-1.2011918427	-0.249717
C	 0.7119241906	-1.8967362551	-1.2919428292	-0.070553
C	 1.4894497724	-2.312257878	-2.5405994106	-0.061909
C	 2.9363347913	-1.8052082879	-2.4583840537	-0.075139
O	 3.7127761617	-2.1159455579	-3.6224789319	-0.423214
C	 1.4299657583	-3.8368951379	-2.7371532462	-0.054249
O	 1.9487433523	-4.2573647168	-3.9814036691	-0.437176
H	 1.1160060999	 1.865811895	-0.0603004584	 0.126044
H	-0.405827686	 1.9067859218	-0.9683296804	 0.127347
H	-0.4321304987	 1.9218576732	 0.8071035142	 0.116941
H	 0.5054192875	-0.3982408076	 0.8582559458	 0.086978
H	-1.0146246199	-0.3567506217	-0.0523326064	 0.087674
H	 1.1735383067	-2.334935519	-0.3886314924	 0.08627
H	-0.3192649371	-2.2848885933	-1.3443739718	 0.09105
H	 1.0040022286	-1.8431440322	-3.4079957699	 0.082466
H	 2.9454582603	-0.7278184561	-2.2610447803	 0.118294
H	 3.454253121	-2.3006911204	-1.6284102665	 0.111108
H	 3.3747856722	-1.5818261347	-4.3494720265	 0.290788
H	 1.9528696505	-4.3268646284	-1.8954262334	 0.078266
H	 0.3871848979	-4.1747957862	-2.7031002418	 0.099541
H	 2.8104970269	-3.8256477018	-4.0692181449	 0.283925
