15
gdb 67433	2.76182	1.53644	1.26264	3.8484	68.12	-0.2448	-0.0271	0.2177	1003.496	0.111273	-457.692319	-457.684886	-457.683941	-457.724264	28.527	
O	-0.1617774133	 1.4212725009	 0.0713269347	-0.435818
C	-0.0070681769	 0.072501513	 0.0052703119	 0.271421
C	-1.0409767191	-0.9992407314	-0.0497780149	-0.19612
C	-0.4044169513	-1.6558663398	-1.2713404333	-0.226884
C	 0.9048500651	-0.9616565769	-0.8118732447	-0.015548
O	 1.2502857957	-1.6557493882	 0.4125079465	-0.29809
C	 0.1365770795	-1.0445150966	 1.0271286354	 0.296592
C	-0.1252644684	-1.083048347	 2.4626635648	 0.036115
O	 0.5536322433	-1.6575703467	 3.2794139419	-0.269528
H	 0.6398361236	 1.8123135852	 0.4404424776	 0.304833
H	-2.0752171552	-0.9600513625	 0.2663792492	 0.11577
H	-0.3673508079	-2.7464326429	-1.3276806058	 0.118322
H	-0.7941024996	-1.2250987313	-2.196629938	 0.119667
H	 1.7537352049	-0.775336418	-1.4655131015	 0.101061
H	-1.0344775505	-0.506172858	 2.7486742161	 0.078208
