18
gdb 48893	3.64494	1.40974	1.32979	2.1728	76.88	-0.2361	-0.0275	0.2086	1002.9435	0.149574	-401.895993	-401.889076	-401.888132	-401.927509	27.75	
O	-0.0738530131	 0.0071149371	 0.1937389462	-0.250767
C	 0.0308449834	 1.2079734126	 0.1229660089	 0.027241
C	 1.3172416524	 1.9448546968	 0.0322603064	 0.233685
C	 2.6815755007	 1.2625201372	-0.2262209398	-0.277675
C	 3.0806323206	 2.6650462361	-0.6821465615	 0.00615
C	 1.6362434594	 2.9533255533	-1.1792995867	-0.100446
C	 1.8085810053	 4.3479830848	-0.5935432112	-0.189454
N	 2.7353745351	 3.7179785003	 0.423824901	-0.145622
C	 1.7375940663	 2.9074196227	 1.1807624832	-0.210097
H	-0.8733620604	 1.8623497299	 0.1232209606	 0.067041
H	 3.1914516585	 0.7885694997	 0.6158058864	 0.110691
H	 2.6488315826	 0.5798358922	-1.0790562106	 0.117949
H	 3.9856484311	 2.9140128079	-1.2327293823	 0.087675
H	 1.2556131543	 2.7030912909	-2.1701507935	 0.082823
H	 2.3774055753	 5.0022533581	-1.2606101887	 0.114503
H	 0.9624351891	 4.8983417197	-0.1709340278	 0.103239
H	 0.9397350765	 3.5440610567	 1.5707938968	 0.107359
H	 2.2003950928	 2.3691117939	 2.0106002025	 0.115705
