17
gdb 113068	2.09585	1.23928	0.88318	0.6949	65.68	-0.2602	-0.0459	0.2143	1305.2394	0.133797	-496.079118	-496.069764	-496.06882	-496.114384	32.931	
O	-0.1104789179	 1.1819149028	-0.7356114695	-0.411818
C	-0.0251204078	-0.1462632949	-0.2643883534	-0.070099
C	-1.3911703338	-0.6419504766	 0.1928670261	-0.011249
O	-2.3505405682	-0.6619241524	-0.9032670267	-0.337637
C	-2.6022083551	-2.0924601499	-0.7913261821	-0.011247
C	-2.2624258625	-2.8259712313	-2.0825991204	-0.070102
O	-3.0732012808	-2.366651982	-3.143290024	-0.411816
C	-1.5975863362	-2.1522929359	 0.3667458626	 0.317176
O	-1.1490788362	-3.0042433725	 1.0704711402	-0.276312
H	-0.7760857105	 1.1862121244	-1.4334812408	 0.293607
H	 0.3788857689	-0.8249716003	-1.0314921723	 0.095133
H	 0.6659163795	-0.1480019035	 0.5843012099	 0.131336
H	-1.7582385015	-0.0297021365	 1.0264810696	 0.121475
H	-3.6437176301	-2.2880172844	-0.5058162644	 0.121476
H	-1.1913517611	-2.7056348663	-2.3076156946	 0.095135
H	-2.4622197603	-3.8947736467	-1.9578887806	 0.131337
H	-2.9455254863	-1.4122242738	-3.1965677496	 0.293607
