18
gdb 50939	1.70906	1.61977	0.90258	2.0269	73.87	-0.2577	-0.0402	0.2176	1275.8804	0.146486	-439.105773	-439.096605	-439.09566	-439.140526	32.712	
O	 0.4675842956	 0.4305628384	 1.4513215374	-0.326532
C	 0.209757096	 1.1846397009	 0.5345953115	 0.157475
N	 1.1087033447	 1.6480042347	-0.3716117753	-0.277596
C	 2.4650042036	 1.1444316982	-0.4395002206	-0.088062
C	 2.938064024	 1.2085337921	-1.8810795475	 0.160421
O	 2.2935156822	 1.6909400989	-2.7788109255	-0.258851
C	 3.4601069448	 1.8941339869	 0.4395977943	 0.007188
C	 3.541071671	 1.5725101682	 1.9095344941	-0.26865
C	 4.6628190022	 1.1636170898	 0.9924169307	-0.273572
H	-0.8069183594	 1.5820907708	 0.3498892651	 0.084668
H	 0.7791192593	 2.1219139893	-1.202048908	 0.259649
H	 2.4679859055	 0.0909403703	-0.123774824	 0.121987
H	 3.9575837174	 0.8054100777	-2.0467204496	 0.104712
H	 3.6030962339	 2.9330929232	 0.154845185	 0.092363
H	 3.7136039921	 2.3966632168	 2.5923325035	 0.116898
H	 2.8661417344	 0.810164615	 2.2788738716	 0.153891
H	 4.7693960167	 0.1083328841	 0.7619346015	 0.116023
H	 5.603456246	 1.6996486547	 1.0461266458	 0.117988
