20
gdb 74615	2.55403	1.91333	1.41084	1.7411	83.	-0.2055	0.0133	0.2188	1003.4524	0.171553	-365.987744	-365.979822	-365.978878	-366.019498	32.044	
C	-0.0240283519	 1.5097497086	 0.0257409987	-0.503804
C	-0.0584990353	 0.0166524444	-0.0169495843	 0.29693
C	 0.0287809965	-0.7943855231	-1.0748950757	-0.20082
C	 0.0388336243	-2.2040538263	-0.6044573506	-0.067419
C	 0.9497739441	-2.596897119	 0.5309759731	-0.045898
C	 1.4456091391	-1.4212326964	 1.3506200478	-0.28262
C	-0.0153911989	-0.8554105012	 1.2306403231	 0.234286
C	-0.6980860483	-0.3510740661	 2.4796975189	-0.489444
N	-0.496099709	-2.249385926	 0.7741550581	-0.166053
H	 0.8499262955	 1.8749209281	 0.5813325509	 0.127526
H	 0.0171182899	 1.9349172739	-0.9805396373	 0.126287
H	-0.9065411628	 1.9183250069	 0.5326757758	 0.131055
H	 0.1154986943	-0.5010906972	-2.1136567267	 0.096282
H	-0.2957464408	-3.0073141586	-1.2546271647	 0.087662
H	 1.3113662448	-3.6174305026	 0.6224963166	 0.089331
H	 1.6549048447	-1.7368625356	 2.3760673955	 0.108525
H	 2.2745748666	-0.8128777298	 0.9759356139	 0.095147
H	-0.231504904	 0.5726237546	 2.8393159876	 0.114351
H	-1.7575280361	-0.1507668535	 2.2882336775	 0.12512
H	-0.6360989928	-1.0977396013	 3.2765232817	 0.123555
