21
gdb 82092	2.79527	1.27644	1.02292	1.8882	81.82	-0.2494	0.0772	0.3266	1234.8257	0.182678	-387.035564	-387.027002	-387.026058	-387.069003	32.984	
C	-0.2137643912	 1.6117266002	-0.2783890435	-0.407649
C	 0.0122389128	 0.1116450373	-0.1152585427	-0.006988
C	 0.7174202928	-0.6617992117	-1.241513252	-0.054951
C	 2.1560190545	-0.2495853139	-1.3700263801	-0.285313
C	 1.7669267429	-1.18679933	-0.2604126469	-0.061229
C	 1.0992998572	-0.4324982203	 0.9004588014	-0.033836
C	 1.9344626824	 0.5309775093	 1.6986853559	 0.080759
C	 1.5675860156	 0.9298317182	 3.06480499	-0.186007
O	 2.6107566834	-0.0167833363	 2.8398287631	-0.239629
H	 0.7037279496	 2.143614568	-0.5479443159	 0.113692
H	-0.9479582029	 1.8035697972	-1.0685492	 0.114959
H	-0.5963455266	 2.0574384657	 0.6461069319	 0.114929
H	-0.9443105013	-0.364339434	 0.1210730917	 0.076108
H	 0.2083171756	-1.1933606869	-2.0368002364	 0.082212
H	 2.6945549486	-0.7142430724	-2.1897212143	 0.112318
H	 2.4734263662	 0.7699140635	-1.1679067196	 0.1051
H	 2.1895495011	-2.1810690003	-0.1842556144	 0.089227
H	 0.6372263613	-1.1289702307	 1.6056640464	 0.077586
H	 2.5518067093	 1.2253461938	 1.1283994754	 0.088787
H	 1.8849447323	 1.8971598764	 3.4525848019	 0.111582
H	 0.6605615964	 0.5271020068	 3.5154625882	 0.108345
