18
gdb 70554	2.64486	1.63753	1.21886	3.0917	73.52	-0.245	0.0197	0.2647	1057.9501	0.147693	-439.07252	-439.064507	-439.063563	-439.10502	31.149	
C	 0.0635914996	 1.3190071718	-0.2404633903	-0.446564
C	-0.1161088605	-0.1360772884	 0.105865485	 0.375369
C	-0.8675662724	-0.5745767178	 1.338611964	-0.353493
C	 0.6217244683	-0.7968420445	 1.23468849	 0.032719
O	 1.0543389967	-2.1019585105	 0.9915072738	-0.241477
C	 1.6373959339	-2.1944470323	-0.2978624745	-0.20648
C	 0.6476944384	-1.8305064466	-1.3959508271	 0.364466
N	 0.6212726355	-2.2875395921	-2.5749102931	-0.488368
O	-0.3159743329	-0.9395325748	-1.0449612655	-0.249018
H	 0.9385734496	 1.4631871894	-0.8828297366	 0.127482
H	-0.8154393469	 1.6955766484	-0.77246441	 0.139861
H	 0.198566365	 1.9165616772	 0.6656596797	 0.120616
H	-1.2324109783	 0.1859424042	 2.0198018457	 0.118757
H	-1.4868026123	-1.4583934711	 1.2403952785	 0.138172
H	 1.3003946743	-0.2019647796	 1.8458543876	 0.095611
H	 2.5275887048	-1.5494701123	-0.3722590408	 0.11864
H	 1.9565394807	-3.2301170613	-0.4321757365	 0.133428
H	 1.3473054866	-2.9924692297	-2.6968587201	 0.220277
