20
gdb 119478	4.91993	0.77231	0.74056	1.9524	75.48	-0.2456	0.0655	0.3112	1553.5968	0.170595	-440.23366	-440.224305	-440.223361	-440.268295	34.692	
O	 0.0798680368	 1.4711259465	 0.1585992752	-0.418586
C	 0.0404247315	 0.053243005	 0.1752960179	-0.058147
C	-1.3344892887	-0.5047957245	-0.2122450263	-0.316594
C	-1.357736349	-2.0055085776	-0.2400092565	 0.353794
C	-0.718891812	-2.912158943	-1.3084046874	-0.346018
C	-1.9122917869	-3.9130247616	-1.1039483684	 0.105447
O	-1.6243411709	-5.1982862073	-0.5943002122	-0.432164
C	-2.4895897868	-2.9801193687	-0.0405705339	-0.108774
N	-1.5107271133	-2.73848175	 1.0143198087	-0.36049
H	-0.5229250593	 1.7873568667	 0.8391559182	 0.28149
H	 0.7958572452	-0.2700170792	-0.5496170454	 0.109992
H	 0.3354957773	-0.3497258608	 1.15599103	 0.101205
H	-2.0809446687	-0.1573649964	 0.5129144845	 0.099417
H	-1.6149852852	-0.1024119429	-1.1930759614	 0.103001
H	-0.7054606774	-2.4775311735	-2.3117421353	 0.1055
H	 0.2776146059	-3.2991962765	-1.0697951774	 0.094837
H	-2.5473818528	-3.9679225591	-1.9978951058	 0.075328
H	-1.1618102279	-5.6979119513	-1.2747501917	 0.286413
H	-3.539194469	-2.816913024	 0.1767373469	 0.090106
H	-0.8681070189	-3.5233120718	 1.1078415601	 0.234244
