19
gdb 90005	2.82783	1.40555	1.1192	1.0864	76.12	-0.2531	-0.032	0.2211	1141.3502	0.157961	-423.019822	-423.011294	-423.01035	-423.053041	32.311	
C	-0.4156082297	 1.4288132623	 0.0951745877	-0.407479
C	-0.1000254075	-0.0634589656	 0.0501140295	 0.027486
C	 1.0470103666	-0.4464894342	-0.9349076441	-0.304456
C	 2.0163851355	-0.5073777244	 0.2687586389	 0.340966
C	 0.7995659989	-0.5639877078	 1.2218158778	-0.304461
O	 3.039341756	-1.5231608733	 0.330780157	-0.325667
C	 4.1183679118	-0.5815813339	 0.5058412053	-0.19372
C	 3.0959740574	 0.5592200618	 0.4506851159	 0.282676
O	 3.1206412958	 1.7515512305	 0.5185678641	-0.283137
H	 0.4951260999	 2.022024827	 0.2321342642	 0.145084
H	-0.8943577427	 1.7552641144	-0.8343760729	 0.113286
H	-1.0961680377	 1.6595770466	 0.9218653122	 0.113285
H	-1.0194358949	-0.6378343112	-0.0866495122	 0.074128
H	 0.9257515074	-1.4479516782	-1.3562849194	 0.118849
H	 1.2871943616	 0.2575984504	-1.7360292217	 0.108853
H	 0.8439495527	 0.047116064	 2.1272472207	 0.108856
H	 0.598607694	-1.6032935138	 1.495036536	 0.118852
H	 4.6422284999	-0.6988999442	 1.4625307984	 0.133301
H	 4.846111115	-0.6020919403	-0.3147781273	 0.133297
