13
gdb 132200	2.05119	1.88671	0.98357	4.9189	66.44	-0.2223	-0.0142	0.208	1083.721	0.090183	-494.06666	-494.059303	-494.058359	-494.098589	27.856	
N	 0.1371869214	 1.3336255323	 0.1841569629	-0.575132
C	-0.052343866	-0.0190458912	 0.0644214903	 0.430562
C	-1.2002539395	-0.7158566083	 0.0269719267	-0.247432
C	-1.1771293449	-2.168966286	-0.0081263207	 0.343128
N	-2.2469295773	-2.8646111887	-0.0306766328	-0.536552
N	 0.1174556533	-2.7677539113	-0.0245360613	-0.41293
C	 1.1143970797	-2.0075453919	-0.0013916749	 0.39606
F	 2.3423639153	-2.4626546001	-0.0217545682	-0.041444
O	 1.170522867	-0.6610863181	 0.0459034296	-0.233613
H	 0.9990748389	 1.6811680182	-0.2112793302	 0.269728
H	-0.6684170711	 1.8999803965	-0.0328772943	 0.272625
H	-2.1553423553	-0.2093992166	 0.0303696199	 0.114701
H	-1.9995966717	-3.8550310247	-0.0587981368	 0.220298
