15
gdb 127568	3.28515	1.45954	1.01697	1.6422	73.76	-0.2387	-0.0599	0.1789	1098.5733	0.114496	-450.161843	-450.154	-450.153056	-450.194391	29.086	
C	-0.4254329954	 1.368404256	-0.0207027617	-0.304628
N	 0.054510573	-0.0081562594	 0.0151176114	-0.052963
N	 0.3591127696	-0.5708704535	-1.1599224264	-0.143661
C	 0.7892602053	-1.7873827523	-1.2000716438	-0.12053
C	 0.9752101259	-2.6270426626	-0.0130278875	 0.404935
O	 1.3755229634	-3.7715706506	-0.004550576	-0.362328
N	 0.6322901767	-1.9526219199	 1.1569111064	-0.442771
C	 0.1643766836	-0.645806805	 1.2535260356	 0.499636
N	-0.1558666565	-0.0098837707	 2.3112953506	-0.562183
H	 0.2345850681	 2.0148233479	 0.5626001486	 0.153235
H	-0.4357483009	 1.6713368129	-1.0660419366	 0.148765
H	-1.4275820347	 1.4313599227	 0.4099350327	 0.153231
H	 1.0245200352	-2.2057716719	-2.1704585737	 0.147931
H	 0.7380500674	-2.477708637	 2.0141334173	 0.263787
H	-0.0333386308	-0.5769572466	 3.1468160631	 0.217542
