13
gdb 130932	6.76603	0.8201	0.74169	4.4366	60.79	-0.2682	-0.0479	0.2202	1392.0656	0.088156	-489.909746	-489.901758	-489.900814	-489.943888	27.581	
O	-0.4282350481	 0.5557229048	 0.8721059614	-0.228
C	 0.0483008918	 0.9714723661	-0.1478174297	 0.181338
C	 1.2949097316	 1.8558751037	-0.1717773345	-0.420457
C	 1.2368176602	 2.9267846251	-1.2087016339	 0.428418
N	 0.1638151717	 3.2375548112	-1.8580922167	-0.165269
O	 0.5363908924	 4.291896785	-2.7244170909	-0.229662
C	 1.8645138432	 4.5955270687	-2.5613832488	 0.516509
O	 2.4686112965	 5.4426360057	-3.149302233	-0.381965
N	 2.2992421316	 3.7041439415	-1.5861253789	-0.431698
H	-0.361710092	 0.7126760569	-1.143509395	 0.119335
H	 1.444631165	 2.2754404432	 0.8282990619	 0.165046
H	 2.1555556189	 1.2026107982	-0.3795499159	 0.155528
H	 3.2411692271	 3.6832920799	-1.2350224458	 0.290875
