16
gdb 35591	4.78257	0.892	0.7786	4.0235	84.1	-0.2667	-0.0463	0.2204	1393.3833	0.124497	-363.612234	-363.60394	-363.602996	-363.645479	30.855	
C	-0.6263970265	-1.0534495706	-0.7250386798	-0.443447
C	-0.271944239	 0.0201891801	-0.3170537704	 0.303161
C	 0.1634416475	 1.3117881493	 0.1900132447	-0.171745
C	-0.4149837228	 1.6829691725	 1.5918032399	-0.265191
C	 0.6784472303	 2.5144489938	 2.201543157	-0.153502
C	 1.8322936662	 2.3945704202	 1.5308210207	 0.198599
C	 1.7088212874	 1.4496623934	 0.3487844007	-0.319652
C	 3.0602352973	 3.0184217583	 1.881388656	 0.199148
N	 4.0752477527	 3.5148991624	 2.1372957349	-0.332646
H	-0.9416932056	-1.9993400221	-1.0906173159	 0.200707
H	-0.1608916558	 2.091462048	-0.5096971464	 0.119956
H	-1.3703220931	 2.211180095	 1.5172825623	 0.128136
H	-0.5984786713	 0.7848024132	 2.1962786802	 0.137058
H	 0.5474601698	 3.1049241223	 3.1003458202	 0.126388
H	 2.1747914547	 0.4843564108	 0.577845797	 0.138739
H	 2.1856870282	 1.8307390735	-0.5577529712	 0.134292
