21
gdb 56163	3.59807	0.81516	0.8	2.4463	80.75	-0.2427	0.0314	0.2741	1552.9809	0.181138	-420.421865	-420.411338	-420.410393	-420.45971	37.177	
C	-0.1787698338	 1.4345516832	 0.1787269726	-0.483057
C	-0.1974255558	 0.0005805686	-0.3284320499	 0.410203
O	 0.3851888416	-0.3326957919	-1.3442220813	-0.37122
N	-0.9089442372	-0.8789559106	 0.4420810305	-0.310721
C	-1.0597402814	-2.2823188361	 0.0960497327	-0.234956
C	-2.514151374	-2.7074576915	-0.0128492718	 0.332896
C	-3.3317672683	-1.9976085888	-1.0707919074	-0.439126
C	-2.841405191	-4.1071927249	 0.3535616791	-0.280035
N	-3.2466993683	-2.9988180399	 1.2421987146	-0.354869
H	 0.8582435268	 1.7280871789	 0.3619820632	 0.153714
H	-0.5678871112	 2.0881314219	-0.6062173625	 0.15426
H	-0.7588811419	 1.5895791307	 1.0922125118	 0.110369
H	-1.3882488301	-0.5336689068	 1.2573564417	 0.244943
H	-0.5406712	-2.4089806563	-0.8580263511	 0.153473
H	-0.5500475225	-2.9132303783	 0.8383620111	 0.094066
H	-2.9331286677	-2.201457428	-2.0703002203	 0.1247
H	-4.3718321977	-2.3286565219	-1.0315315602	 0.126411
H	-3.3140452516	-0.9141112604	-0.9175661796	 0.118072
H	-3.6614284919	-4.6154555979	-0.1459260095	 0.120114
H	-2.0349967168	-4.7623873437	 0.6740524508	 0.110371
H	-2.6103637772	-2.9652849663	 2.0368084858	 0.220391
