19
gdb 116623	4.5056	0.94831	0.8432	3.3392	80.53	-0.2366	0.0191	0.2557	1418.3536	0.160248	-419.195375	-419.18686	-419.185916	-419.22979	31.464	
C	-0.4848254018	 1.4776513587	-0.1548390957	-0.367072
C	 0.2840408411	 0.1761534554	 0.0629055417	-0.127667
N	 1.0050912648	-0.1955624631	-1.1498303976	-0.354927
C	 2.0448818043	-0.8985509068	-1.0553146373	 0.513449
O	 2.5677414701	-1.3917738074	 0.1168642329	-0.263921
C	 3.9022518647	-1.8939780047	-0.0756685529	-0.082463
C	 4.1160489284	-1.9455424255	-1.5748197791	-0.059883
N	 3.1058425452	-2.7882504305	-2.2304146701	-0.330032
C	 2.9235894166	-1.3095973509	-2.1829777877	-0.174157
H	 0.2011242301	 2.3015801711	-0.3757305488	 0.11304
H	-1.1731014189	 1.3802587344	-0.999427827	 0.120785
H	-1.0617844053	 1.7422326324	 0.7372076541	 0.10332
H	 0.9594405905	 0.2654079354	 0.9249386518	 0.101425
H	-0.4221096391	-0.6295923935	 0.3081929731	 0.108284
H	 4.6136904464	-1.2121601706	 0.4054689464	 0.112767
H	 3.96380201	-2.8779507728	 0.3979524424	 0.126885
H	 5.1134902656	-1.8483042291	-1.9876393884	 0.105512
H	 3.4310171719	-3.034029093	-3.1634174792	 0.239601
H	 2.9287612253	-0.7271654597	-3.0942662585	 0.115054
