17
gdb 93649	2.06831	1.67901	1.34518	0.8599	68.63	-0.2631	0.0185	0.2816	1028.6447	0.135113	-458.918333	-458.909603	-458.908659	-458.952029	32.706	
O	-0.3951037984	 1.4817657687	 0.6070592808	-0.435819
C	-0.0266009597	 0.1575441371	 0.2917906313	 0.065223
C	 0.4200774285	-0.5754441305	 1.5690956873	-0.091517
O	-0.3344301027	-1.7914580652	 1.6408344532	-0.243375
C	-1.5917984458	-1.5611285463	 1.0346026212	-0.13551
C	-2.5568633331	-0.8981894394	 1.9228127853	 0.311766
C	-3.3589454372	-0.3298636149	 2.6168829316	-0.438101
C	-1.2602547149	-0.670592136	-0.1994614723	 0.095577
O	-2.3115483004	 0.1393676184	-0.6684107133	-0.439955
H	-1.0111560753	 1.7541085421	-0.0869571288	 0.283307
H	 0.761404098	 0.1473088695	-0.4739101786	 0.07374
H	 1.4745542911	-0.8581591548	 1.5744412889	 0.113929
H	 0.2123393299	 0.0709925742	 2.4310318729	 0.119992
H	-1.9877482795	-2.5372113696	 0.7389163428	 0.118563
H	-4.0596998405	 0.1515218101	 3.2546354096	 0.210718
H	-0.9679915871	-1.3232750274	-1.0255740654	 0.10154
H	-2.8397798828	 0.395808514	 0.1017020035	 0.28992
