21
gdb 120303	3.23178	0.90232	0.81184	1.1194	79.23	-0.2245	0.0627	0.2872	1513.5151	0.181038	-424.178252	-424.168779	-424.167835	-424.21298	35.375	
C	-0.1234909248	 1.5232259125	-0.0044320134	-0.38248
C	-0.0914421669	-0.0001881148	-0.1500026637	-0.155395
C	 0.9341758857	-0.4805400431	-1.1860956052	-0.212251
C	 0.9611392532	-1.9882402853	-1.3201640623	-0.066765
C	 0.0774027319	-2.7725847439	-2.2663221083	-0.009999
O	-0.1130714598	-2.0568768809	-3.4945892081	-0.281762
C	 1.3078251875	-2.1168196034	-3.7878631129	-0.15214
C	 1.5885070758	-2.776673578	-2.4388899179	 0.273179
O	 2.5870127669	-3.6915371839	-2.1823565544	-0.447165
H	 0.8521510487	 1.9115836184	 0.3088934499	 0.112445
H	-0.3806849076	 2.005531244	-0.954045853	 0.115846
H	-0.8616092452	 1.8386547462	 0.7396524762	 0.110158
H	 0.1334059067	-0.4573476967	 0.8228743831	 0.091627
H	-1.0853783869	-0.366023846	-0.4363261572	 0.102925
H	 0.6931864004	-0.0357003224	-2.1577683066	 0.110758
H	 1.9329831955	-0.1177269728	-0.9091498257	 0.095791
H	 1.0929577457	-2.5310839087	-0.3838141003	 0.094875
H	-0.6646336417	-3.5124529639	-1.9893962169	 0.10453
H	 1.4951664075	-2.7862543558	-4.6382237922	 0.098045
H	 1.7444815726	-1.1325774361	-3.9906732392	 0.110851
H	 2.5082885849	-4.4157038055	-2.8144138018	 0.286927
