19
gdb 59514	3.68993	0.74415	0.68916	3.5004	73.5	-0.252	-0.0267	0.2253	1648.8084	0.155291	-460.145502	-460.135235	-460.134291	-460.182424	35.677	
C	-0.4419232937	 1.3411631794	 0.2519491874	-0.411714
C	 0.1530809298	 0.0282057674	-0.2539098261	 0.1009
O	 0.8800889229	 0.1923689858	-1.4665511334	-0.426519
C	 1.0449955357	-0.6059125583	 0.7974193273	 0.044286
O	 0.411295478	-1.1798186825	 1.9440986355	-0.263614
C	 1.1492973355	-2.0478939907	 1.0679696613	 0.042375
C	 0.370851257	-3.1296272923	 0.3502125665	-0.310835
C	-0.0621353184	-4.2224136606	 1.3117747847	 0.158678
O	 0.1366868219	-5.3971737136	 1.1430269939	-0.235163
H	 0.352062113	 2.0558211022	 0.5043248926	 0.109125
H	-1.0783430749	 1.789778732	-0.5152549278	 0.128484
H	-1.0366909991	 1.1708694664	 1.1539338634	 0.140495
H	-0.6625003902	-0.6581604731	-0.5001359957	 0.094847
H	 1.4934142	 0.9262306899	-1.3485427363	 0.281938
H	 1.9251567044	-0.000764785	 1.0377254108	 0.084655
H	 2.0909169261	-2.3934721925	 1.4992596455	 0.105034
H	-0.5382056774	-2.7065096206	-0.0923293236	 0.128782
H	 0.971045806	-3.5773642857	-0.4472055163	 0.132925
H	-0.5976068167	-3.8485643181	 2.2124652803	 0.09532
