16
gdb 45631	5.79636	0.8864	0.77616	3.5975	78.12	-0.2322	-0.0013	0.2309	1402.654	0.123836	-396.919887	-396.911191	-396.910247	-396.954024	31.739	
N	 0.019086545	 1.3299012003	 0.0076469501	-0.550177
C	 0.0246249407	 0.0610245667	 0.0009298846	 0.381916
C	-1.1966313202	-0.8550818521	 0.0030141768	-0.23798
N	-0.6921060182	-2.2335683488	-0.0067762886	-0.288389
C	 0.5795476048	-2.1477982874	-0.0135014745	 0.409769
C	 1.5591578967	-3.293463855	-0.0247184521	-0.506249
C	 0.950633556	-4.614567069	-0.0285877512	 0.354373
C	 0.4880431465	-5.7214727833	-0.0320039782	-0.438485
N	 1.0866768349	-0.8454504454	-0.0098857373	-0.387183
H	 0.9633341988	 1.718846457	 0.0043255702	 0.20603
H	-1.8186388756	-0.6788405147	 0.8870187522	 0.14695
H	-1.8282995711	-0.6699136981	-0.8722777649	 0.14695
H	 2.2118829638	-3.178735121	-0.9023847914	 0.152887
H	 2.220986192	-3.1880547145	 0.8472876473	 0.152905
H	 0.058658642	-6.6925657163	-0.0346300578	 0.202287
H	 2.0601963738	-0.5907073885	-0.0134800052	 0.254395
