20
gdb 66370	2.24346	1.38514	1.31629	3.3576	78.14	-0.2917	0.0184	0.3101	1122.1874	0.172417	-403.188304	-403.179698	-403.178754	-403.221082	33.7	
O	-0.0804979825	 1.4098750928	 0.0083881782	-0.455251
C	 0.024253336	-0.0073694873	-0.0216780566	 0.234151
C	 0.790669485	-0.5458312303	 1.2060758093	-0.23618
C	 0.7444909185	-2.0779764272	 1.3039439088	-0.212867
C	-0.701632058	-2.5925027554	 1.2922080949	-0.182279
C	-1.465918666	-2.0797911465	 0.0633581026	-0.216476
C	-1.4166736292	-0.5492744282	-0.0334261253	-0.208068
C	 0.7293948361	-0.41423064	-1.2639481139	 0.250587
N	 1.3026292362	-0.7131061402	-2.2225141394	-0.349494
H	 0.8094292129	 1.7811418849	 0.0207238783	 0.288098
H	 1.8266768531	-0.1882974456	 1.1757811302	 0.100659
H	 0.3142213828	-0.09221461	 2.0832155509	 0.11235
H	 1.2966591289	-2.51323013	 0.4615122661	 0.121437
H	 1.2607417579	-2.3992465632	 2.2145104656	 0.101755
H	-0.7112946023	-3.6873348121	 1.3116821305	 0.099455
H	-1.2138702298	-2.2576488062	 2.2046729478	 0.09614
H	-1.0341248696	-2.5167377933	-0.8460486911	 0.120304
H	-2.5106895644	-2.4052582162	 0.0987125913	 0.102527
H	-1.9175324919	-0.0936936871	 0.8288226005	 0.112791
H	-1.9253133436	-0.187256339	-0.9312302685	 0.12036
