17
gdb 45043	2.6012	1.88533	1.28557	2.184	73.42	-0.2407	0.0103	0.2511	983.9308	0.138055	-417.983633	-417.976447	-417.975503	-418.015236	28.661	
N	-0.0916382233	 1.157844786	-0.5899657651	-0.560591
C	-0.0228357998	 0.0173742711	-0.0522065829	 0.349156
O	 1.1024650756	-0.5451958595	 0.4803991022	-0.243176
C	 0.8293914087	-1.863239887	 0.9399937277	 0.078021
C	-0.0707391776	-1.9876439602	 2.1312771771	-0.326622
C	-0.6243202252	-2.172117735	 0.726801657	-0.153717
C	-1.1732642682	-0.9405790835	 0.0692390323	 0.26616
C	-2.5560161694	-0.4070960535	 0.1924974531	-0.273155
N	-2.11678376	-1.05195601	-1.0505515582	-0.363424
H	 0.8113665265	 1.6308992268	-0.5872638673	 0.229527
H	 1.6506385083	-2.541427161	 0.7484332353	 0.116585
H	 0.033148373	-2.8763313146	 2.7441084855	 0.124684
H	-0.3243062411	-1.0825208162	 2.6741089529	 0.129919
H	-0.9773172594	-3.1393215962	 0.394216606	 0.115916
H	-3.2860715904	-0.9694772834	 0.7680143775	 0.121836
H	-2.6638947848	 0.6733842217	 0.2054945215	 0.138438
H	-1.8775933729	-0.3294526254	-1.7293448046	 0.250443
