15
gdb 69890	2.74709	1.73133	1.22817	3.7059	70.27	-0.2437	-0.0097	0.234	983.2829	0.111995	-416.721109	-416.713581	-416.712637	-416.752883	29.49	
O	-0.1610877843	 1.3707092072	-0.0238301587	-0.43557
C	-0.033382839	 0.0082375477	 0.0031324094	 0.363539
C	-0.8576134207	-0.8399639324	 0.903470773	-0.345685
C	 0.6549797492	-0.9713916773	 0.9305834085	-0.09739
N	 1.3115541642	-1.7135186182	-0.2227190747	-0.150686
C	 0.3143141971	-2.2633112864	-1.1466707565	-0.275337
C	 0.578869827	-0.7991711895	-1.1828743152	 0.067078
C	 1.2552474706	-0.1228887267	-2.2463852115	 0.23474
N	 1.7722216547	 0.481314544	-3.087562706	-0.342416
H	 0.6788450099	 1.762825129	-0.2946415032	 0.304096
H	-1.2142291365	-0.2795978625	 1.7631434385	 0.141346
H	-1.5493391421	-1.607023037	 0.5725674785	 0.123813
H	 1.2442546067	-0.8546013049	 1.8297506287	 0.123484
H	 0.7670832228	-2.8553140486	-1.9370401538	 0.150793
H	-0.6374374397	-2.6395953843	-0.7917538271	 0.138195
