21
gdb 121127	2.40252	1.26149	1.06706	1.098	75.38	-0.2453	0.0845	0.3298	1267.3463	0.18143	-461.355595	-461.345898	-461.344954	-461.391136	34.508	
C	 0.2914064231	 1.0745927461	-0.2392141819	-0.224529
O	 0.0920371295	-0.3165019458	-0.1512904547	-0.231409
C	-1.245617818	-0.6641831914	 0.1156085187	-0.087034
C	-1.3806849208	-2.1844911119	 0.1903431795	 0.205581
O	-1.0138043684	-2.8264773789	-1.0094192601	-0.264065
C	 0.3358551839	-3.2482224004	-0.853976549	-0.112893
C	 0.4590589991	-3.5226889244	 0.6531784639	 0.134453
C	 1.8045546817	-3.1555681909	 1.2574837725	-0.405322
O	-0.5712011219	-2.7072170434	 1.2232815103	-0.285716
H	 1.3519409415	 1.2415090429	-0.4421989685	 0.127437
H	-0.3016973084	 1.5208457067	-1.0527539466	 0.107219
H	 0.02406231	 1.5836430079	 0.7000046974	 0.107387
H	-1.5832846707	-0.2343070655	 1.0737011119	 0.092427
H	-1.9157006192	-0.2920154317	-0.6771931732	 0.091788
H	-2.4361293972	-2.4264266902	 0.385887861	 0.082157
H	 0.4863415437	-4.1403682033	-1.4672971755	 0.106859
H	 1.0302273216	-2.4608182886	-1.1700230205	 0.109214
H	 0.2201624372	-4.5748004446	 0.8660320849	 0.07518
H	 2.0120341964	-2.097964009	 1.0739849878	 0.135926
H	 1.8030654323	-3.3302820426	 2.3368445502	 0.124049
H	 2.6033551446	-3.761128821	 0.8155765821	 0.11129
