22
gdb 113764	2.40016	1.04817	0.89929	1.833	84.44	-0.2297	-0.023	0.2067	1442.6644	0.191599	-404.327234	-404.316783	-404.315839	-404.363754	37.37	
C	-0.3187387501	 1.7158769652	 0.0505106753	-0.376765
C	-0.1251133377	 0.2544689943	 0.4468327399	-0.136484
N	-1.3166573962	-0.5198182093	 0.0975347921	-0.074311
C	-1.3552522756	-1.1217423877	-1.2264883604	-0.267898
C	-1.2248381984	-1.9760316702	-0.0022497845	-0.021927
C	 0.0526750915	-2.767457173	 0.3391475274	-0.072248
C	-0.3147507965	-4.120172683	 0.9702794048	-0.427144
C	 0.8874206228	-2.9981048406	-0.9063826781	 0.161434
O	 1.9254614283	-2.4416869424	-1.1621704349	-0.258733
H	 0.5498203095	 2.3120097575	 0.3461004627	 0.113975
H	-0.4421834393	 1.8134946821	-1.0330011789	 0.119375
H	-1.2092251044	 2.1304853039	 0.5310081289	 0.125647
H	 0.790398918	-0.1405689806	-0.0203969326	 0.113397
H	 0.0096483453	 0.1800038407	 1.533027136	 0.102205
H	-2.3016310458	-1.0646823028	-1.7584652152	 0.114103
H	-0.4740748714	-1.0108410818	-1.8574183751	 0.125767
H	-2.1295318029	-2.4719966129	 0.3465233433	 0.093287
H	 0.6701875276	-2.1946591075	 1.0377775189	 0.104225
H	-0.8926103406	-4.736612693	 0.2724430537	 0.126798
H	 0.5790851658	-4.6814624391	 1.25805381	 0.127852
H	-0.9250520488	-3.9690574963	 1.8653964568	 0.131837
H	 0.449736869	-3.7454470434	-1.6099485101	 0.075607
