18
gdb 96643	2.23315	1.2908	0.88876	2.8302	79.38	-0.2548	-0.0234	0.2314	1322.9266	0.145576	-435.293169	-435.283067	-435.282123	-435.328869	34.795	
C	 0.5178286714	 1.3067677639	-0.178090513	-0.32839
N	 0.4083801808	-0.1413811662	-0.1247522422	-0.245697
C	 0.6140860135	-0.7395913191	 0.9735568785	 0.361821
C	 0.9773382306	-0.1081761561	 2.2950484476	-0.466396
N	 0.3952811654	-2.1566272688	 0.96447161	-0.137476
C	 1.2396165896	-3.0606275352	 1.6131276861	 0.084315
N	 2.3025776055	-2.6921243231	 2.2023350283	-0.466
C	-0.657898072	-2.6725281097	 0.1942308241	 0.172847
O	-0.8901977902	-3.8494357749	 0.0706529116	-0.311938
H	 1.4294076002	 1.6866160743	 0.3006653568	 0.125306
H	 0.5231536901	 1.6212549591	-1.2241847964	 0.133815
H	-0.340407031	 1.7898331616	 0.3092813441	 0.128707
H	 0.785438037	-0.7780341807	 3.1309497072	 0.146674
H	 2.0410825288	 0.1440603243	 2.3197165652	 0.165984
H	 0.4019838039	 0.8133948199	 2.425542023	 0.129851
H	 0.8623030732	-4.0793735802	 1.5140170859	 0.147409
H	 2.7709238637	-3.5012147956	 2.6067164248	 0.23595
H	-1.2454559905	-1.8680094635	-0.2672928414	 0.123219
