21
gdb 103611	2.23709	1.29587	1.10839	1.1331	79.46	-0.2441	-0.0255	0.2186	1260.002	0.179096	-424.244441	-424.234092	-424.233148	-424.279865	37.373	
C	-1.1657899545	 2.2721213647	 1.610787647	-0.393153
C	-0.4264535655	 1.1336037972	 0.8996956047	-0.208153
C	 0.2227365005	 0.1314964144	 1.8603833006	 0.292124
C	 1.3519019414	 0.7122081408	 2.7058170265	-0.436782
O	-0.7758369288	-0.5425848167	 2.6918813004	-0.350543
C	-0.4797750874	-1.8642219183	 2.1780199479	 0.03622
C	-1.6729265263	-2.5801578856	 1.5690071378	-0.408257
C	 0.5474159227	-1.2337847068	 1.2283675503	 0.290253
O	 1.2635004877	-1.6229502312	 0.3553905859	-0.29635
H	-0.4834821726	 2.9152550435	 2.1744549202	 0.118845
H	-1.68739014	 2.9017319628	 0.88404235	 0.116099
H	-1.9062865707	 1.8683705132	 2.3068567463	 0.13824
H	-1.1310992893	 0.5915172485	 0.2587172896	 0.101743
H	 0.3549862445	 1.5281238874	 0.2394456465	 0.111415
H	 0.9735922192	 1.505939047	 3.3556847074	 0.134363
H	 1.7989273478	-0.0576985219	 3.3407551485	 0.123376
H	 2.1343172687	 1.1276756904	 2.0634491966	 0.131154
H	-0.0082904569	-2.4909033454	 2.9495366358	 0.103253
H	-2.1319377975	-1.9806364622	 0.7781871358	 0.127374
H	-1.3540668425	-3.5366668513	 1.1433116757	 0.134731
H	-2.4272121306	-2.7763601205	 2.3366282867	 0.134047
