23
gdb 109701	2.69179	1.08349	0.94927	1.6323	86.45	-0.2166	0.0725	0.2891	1397.113	0.204344	-388.26395	-388.253864	-388.25292	-388.29928	36.969	
C	-1.9409419914	 2.2673092727	-1.9776912988	-0.371777
C	-1.1848569725	 1.4677433158	-0.9091689508	-0.20182
C	-1.9546078241	 0.2578931776	-0.4174966652	-0.099845
C	-1.9336805733	-1.1064441395	-1.1214811265	-0.101055
C	-1.1316514485	-1.3897750275	-2.3736812107	-0.414125
C	-1.2783908626	-0.9189846355	 0.2105563759	 0.428156
C	 0.1779905024	-1.1103102335	 0.6273918265	-0.3585
C	-0.4376775969	-1.7662071812	 1.8819416227	-0.072865
O	-1.7809938054	-1.5390617896	 1.4001297125	-0.31009
H	-1.3693064795	 3.1449662247	-2.2961172707	 0.108447
H	-2.1400391931	 1.654526961	-2.8626867446	 0.119362
H	-2.9060773557	 2.6176664277	-1.5958242286	 0.115635
H	-0.2098150353	 1.1608206451	-1.3053931284	 0.094246
H	-0.9664657554	 2.1209926766	-0.053650904	 0.09767
H	-2.9164047501	 0.4983927638	 0.0324924812	 0.089204
H	-2.8815606079	-1.6372968813	-1.0677416405	 0.092177
H	-0.1644697486	-0.8786749773	-2.3683739371	 0.116385
H	-0.9321841891	-2.4628712369	-2.4726205547	 0.118029
H	-1.6677488824	-1.0697485387	-3.2739436854	 0.119394
H	 0.7676323586	-1.7751629365	-0.0074524711	 0.111779
H	 0.7409440035	-0.1921014906	 0.8072042257	 0.112461
H	-0.2274100629	-2.8342112587	 2.0116123947	 0.103413
H	-0.2523526697	-1.2465241883	 2.829127448	 0.103721
