20
gdb 120772	3.16178	0.92303	0.8038	0.8778	76.	-0.2463	0.0728	0.319	1490.7204	0.17013	-440.215774	-440.206296	-440.205352	-440.251286	33.605	
C	 0.293323716	 1.3053387865	-0.1635889687	-0.225411
O	 0.5459310064	-0.080047501	-0.1957874836	-0.238987
C	 0.0637918011	-0.6954922276	-1.3707067593	-0.10666
C	 0.3526051317	-2.1724830342	-1.2395448796	 0.049645
O	 0.0626325595	-2.999443598	-2.3748915608	-0.268769
C	 1.4291295447	-2.8731842158	-1.9563610124	 0.03095
C	 2.3592974307	-2.2035061133	-2.9252259263	-0.03481
C	 2.5409020165	-2.7879770112	-4.2778385042	-0.240615
N	 1.815654264	-1.5162737653	-4.1037748515	-0.316001
H	 0.7804654788	 1.8290030316	-1.0007172552	 0.111371
H	-0.7857054571	 1.5234052677	-0.2038798448	 0.105865
H	 0.6967825423	 1.6884640475	 0.7766529934	 0.128728
H	-1.0258108527	-0.5469864213	-1.4707718054	 0.093818
H	 0.5413050752	-0.2726647487	-2.2654996696	 0.12053
H	 0.0232551773	-2.5923938069	-0.2882832838	 0.103204
H	 1.8314238972	-3.7715226937	-1.48398214	 0.099549
H	 3.2035254905	-1.699896875	-2.4580767527	 0.104507
H	 3.5002448762	-2.7090197521	-4.7806947617	 0.11985
H	 1.9638353501	-3.675650938	-4.5239156765	 0.121577
H	 0.8172594718	-1.7191934012	-4.1373538974	 0.241661
