18
gdb 24148	3.66536	1.11437	1.07322	4.246	77.	-0.2275	0.0227	0.2502	1186.1294	0.150994	-398.139362	-398.131532	-398.130588	-398.172551	29.566	
C	 0.9267240398	 0.1534822307	 0.8262525786	-0.330882
C	-0.3499053243	-0.2231079564	 0.077109755	 0.022584
C	-1.2651220864	 0.7946664654	-0.4863651313	-0.237254
N	-0.4567715888	-0.0634371956	-1.380312157	-0.325354
C	 1.6318465036	 1.3759451731	 0.3235412801	 0.258229
C	 2.739643444	 1.4459426957	-0.486603318	-0.186192
N	 2.995423363	 2.7893532607	-0.6537581632	-0.228966
C	 2.0468917718	 3.46860673	 0.0483682848	 0.007396
N	 1.2113445756	 2.6531765934	 0.6472880639	-0.288508
H	 0.6774638768	 0.2964978847	 1.8844248259	 0.121145
H	 1.6176997107	-0.6972321917	 0.7773357951	 0.103747
H	-0.7874820133	-1.1535359133	 0.4356178232	 0.085435
H	-2.3343241014	 0.6035777527	-0.5180577157	 0.107209
H	-0.9842924104	 1.8370686613	-0.3729184533	 0.134305
H	 0.3449583954	 0.4749030644	-1.7068011735	 0.219536
H	 3.3609579506	 0.6867658831	-0.9323523217	 0.134149
H	 3.7483645029	 3.1901413572	-1.1873493965	 0.269749
H	 2.0196820102	 4.5474477746	 0.0875416639	 0.133674
