15
gdb 23646	3.66283	1.76422	1.19956	1.4813	70.78	-0.238	-0.0067	0.2314	949.9891	0.119424	-370.705773	-370.698796	-370.697852	-370.737591	26.206	
C	-0.0119004864	 1.5219307574	 0.0137820418	-0.491871
C	-0.0063964778	 0.012918316	-0.0007234065	 0.341938
C	-0.0347331601	-0.698426667	-1.2031008286	-0.205238
C	-0.0081960649	-2.0913736339	-1.2091438523	-0.078576
C	 0.0451685689	-2.8048517506	-0.0157768262	-0.263559
C	 0.0704911819	-2.0881231856	 1.1726611348	 0.325482
F	 0.1182945245	-2.7552387291	 2.332943679	-0.085389
C	 0.0448083378	-0.7026321189	 1.1995463973	-0.340595
H	 0.9855943675	 1.9192429189	 0.2370026741	 0.136662
H	-0.3190309213	 1.928120045	-0.953384993	 0.125808
H	-0.6913060063	 1.9124141612	 0.7780011408	 0.131032
H	-0.0789729398	-0.1565117714	-2.142293809	 0.09113
H	-0.0324705206	-2.6277557497	-2.1518827934	 0.102603
H	 0.0638289803	-3.8876728781	 0.0091296321	 0.108875
H	 0.0636119563	-0.1941905141	 2.1575691191	 0.101699
