20
gdb 17446	3.28272	2.0515	1.61513	0.1491	78.74	-0.2522	0.0959	0.3481	895.5333	0.177503	-311.831876	-311.824209	-311.823265	-311.863158	30.606	
C	-0.0673557281	 1.5327287024	-0.0434818769	-0.418275
C	 0.1031804906	 0.0310119279	 0.0492317821	-0.002736
C	 1.3913359943	-0.7082487086	-0.204596351	-0.077772
C	 2.5926923066	-0.0052152862	 0.3786052134	-0.109918
C	 3.1843930183	-0.8367147225	 1.4892354532	-0.329309
C	 1.9445470238	-0.0242802877	 1.7779941429	 0.363699
C	 1.9142435036	 1.0297515827	 2.8526784886	-0.495278
C	 0.7354533133	-0.7265531788	 1.1946739167	-0.146402
H	 0.8166587789	 2.0680427943	 0.3095805054	 0.123962
H	-0.2442712265	 1.8348860598	-1.0820687302	 0.111912
H	-0.9250654337	 1.8700662333	 0.5494486571	 0.112132
H	-0.7513310701	-0.5150351827	-0.3510634344	 0.07977
H	 1.4449678624	-1.5335830666	-0.9070723601	 0.080321
H	 3.1476453761	 0.8044312376	-0.0834100965	 0.080602
H	 3.1379943006	-1.9217805208	 1.4371812548	 0.100318
H	 4.1014897404	-0.4511431856	 1.9271673434	 0.101778
H	 2.880179453	 1.5392642378	 2.9357381385	 0.11388
H	 1.1486730143	 1.7879832261	 2.6607073786	 0.118814
H	 1.6963066676	 0.5838273707	 3.8309889811	 0.117233
H	 0.2224607547	-1.5607398534	 1.6638155732	 0.075269
