23
gdb 63390	3.02776	1.07803	0.92797	2.8784	86.61	-0.2446	-0.0176	0.227	1369.3818	0.202602	-388.306991	-388.296656	-388.295712	-388.342349	38.849	
C	-0.4531404824	 1.4876234744	-0.3723100559	-0.446361
C	 0.0104694797	 0.0372153997	-0.2364958762	 0.375553
C	-1.162190459	-0.9237038554	-0.4219794516	-0.447089
C	 1.2655266407	-0.2989153285	-1.104312808	-0.330274
C	 2.1627163724	-0.4029878141	 0.179142764	 0.253113
C	 3.215826345	 0.6866462799	 0.3379611835	-0.460742
C	 0.8655650648	-0.2255738812	 1.0445119771	-0.330287
C	 2.7638810051	-1.7784386615	 0.3378965917	 0.126067
O	 3.9232760981	-2.0161503285	 0.5614715825	-0.261334
H	 0.3750771293	 2.1915839299	-0.2421111418	 0.11572
H	-0.8906212735	 1.6675955225	-1.3612709627	 0.114318
H	-1.2146886616	 1.7269891966	 0.379070191	 0.114317
H	-1.617447575	-0.802955161	-1.4118973309	 0.114378
H	-0.8434342022	-1.9674075874	-0.3270195569	 0.109434
H	-1.9413028486	-0.7435721786	 0.3278959962	 0.114378
H	 1.1743134453	-1.2405054892	-1.6554943532	 0.098709
H	 1.5849175831	 0.4761807281	-1.8060177212	 0.104949
H	 2.7737192024	 1.6804100539	 0.2215829919	 0.110587
H	 3.6852685882	 0.6318520919	 1.3246203916	 0.127877
H	 4.0079684662	 0.5724938725	-0.4079250639	 0.127896
H	 0.9208833929	 0.5979365962	 1.7614156049	 0.104942
H	 0.5708137156	-1.1298375637	 1.5868666275	 0.098704
H	 2.0236547136	-2.6082390065	 0.2286878603	 0.065145
