17
gdb 33384	8.30558	0.49351	0.48418	5.3418	88.83	-0.2539	-0.038	0.2159	2162.7627	0.135604	-380.826733	-380.817604	-380.81666	-380.861939	32.061	
N	-0.0695421976	-3.7310862096	-0.0519875926	-0.338618
C	-0.0310615452	-2.5709083633	-0.0015410524	 0.206691
C	 0.0156455094	-1.2081226826	 0.0582340868	 0.054039
C	 0.0540461893	-0.0014598686	 0.1136196043	 0.078631
C	 0.1289161236	 1.446777087	 0.1695327049	-0.374122
C	 1.5173282941	 1.9883362698	-0.2286011181	-0.137734
N	 1.498052204	 3.4412794065	-0.1752697599	-0.058934
C	 1.8995055704	 4.0502257298	 1.0925894722	-0.225312
C	 2.7982611041	 4.0982026645	-0.0929940809	-0.223878
H	-0.6247426813	 1.8859705187	-0.4945505485	 0.161221
H	-0.1153377746	 1.7847838362	 1.1845754035	 0.150384
H	 2.2862074482	 1.5444709555	 0.4272952912	 0.099868
H	 1.7454923848	 1.6810244517	-1.2544388892	 0.125788
H	 1.3355369329	 4.9273440223	 1.3948325342	 0.12497
H	 2.1900107043	 3.3887133968	 1.9076652389	 0.114433
H	 3.6866144465	 3.4693088629	-0.0676128008	 0.116985
H	 2.9012851872	 5.0101200424	-0.6733307138	 0.125588
