25
gdb 100462	3.43468	0.59613	0.5642	0.0878	99.86	-0.2389	0.0612	0.3	2173.1886	0.226178	-352.350679	-352.338724	-352.337779	-352.389231	42.641	
C	-0.112789461	 1.5616929265	 0.0585466817	-0.393479
C	 0.0010478261	 0.0363565646	-0.0095172984	-0.15447
C	 0.7729677161	-0.4892951553	-1.2455706721	-0.141972
C	 2.2512435485	-0.0487611076	-1.2569836119	-0.381301
C	 0.6702800271	-1.9475252708	-1.3302308193	 0.008696
C	 0.590289143	-3.1497094297	-1.3764529602	 0.123062
C	 0.5138602409	-4.6105299438	-1.4408486928	-0.122676
C	 1.157647909	-5.1448881266	-2.735680055	-0.371505
C	 1.1497684092	-5.2558485929	-0.1934182711	-0.371792
H	 0.8628496727	 2.0441467942	 0.1702742533	 0.11924
H	-0.5827187805	 1.9652618645	-0.8457463227	 0.113638
H	-0.7264749412	 1.8645030543	 0.9126186391	 0.113285
H	 0.4892864718	-0.3461278818	 0.8953665661	 0.101396
H	-1.0023269998	-0.402888722	-0.0242192446	 0.104275
H	 0.2905624738	-0.0628627327	-2.138008319	 0.096201
H	 2.7681797291	-0.4180359345	-0.3653396732	 0.120196
H	 2.765721093	-0.4495118322	-2.1342219047	 0.121683
H	 2.338129637	 1.0410466644	-1.2802486604	 0.11308
H	-0.5484555032	-4.8931812774	-1.4564213526	 0.100188
H	 0.6850675925	-4.707255694	-3.6189333136	 0.121218
H	 2.2236287602	-4.8982992924	-2.7653439705	 0.121225
H	 1.0553414003	-6.2336349558	-2.7910613874	 0.108829
H	 0.6724945333	-4.8957919558	 0.7218023255	 0.120951
H	 1.0464059848	-6.345216339	-0.2328827038	 0.108778
H	 2.2157557773	-5.0140394742	-0.1365181425	 0.121255
