20
gdb 69725	3.60587	1.61424	1.41483	1.5507	81.95	-0.2195	0.0995	0.3191	991.443	0.172892	-365.929543	-365.922574	-365.92163	-365.960375	29.603	
C	-0.0175975471	 1.5154839368	 0.0275456817	-0.483941
C	-0.0091743528	 0.0080074756	-0.0038490162	 0.329057
C	-0.6311021474	-0.8259248622	 1.1011165166	-0.350388
C	 0.8557057115	-0.8822801608	 0.8553239433	-0.047083
N	 1.3968797295	-1.9130902293	-0.0524361784	-0.14331
C	 0.2826944171	-2.2531704482	-1.0520816019	-0.028244
C	 1.3535656569	-2.4281385437	-2.1417070723	-0.251162
C	 1.7118070288	-1.1591533738	-1.3604212398	-0.011141
C	 0.1970887175	-0.7236403423	-1.3273736425	-0.091221
H	 0.8202269227	 1.9303663522	-0.545639464	 0.114763
H	-0.9422016594	 1.9260232589	-0.3957370809	 0.116852
H	 0.0659141521	 1.8889207974	 1.053361983	 0.115952
H	-0.9415395299	-0.2880236651	 1.9924690565	 0.10605
H	-1.261293465	-1.6769932327	 0.8692798907	 0.111834
H	 1.5502481607	-0.5119822966	 1.600855582	 0.088977
H	-0.5202108963	-2.9447318789	-0.793346324	 0.079903
H	 2.026978947	-3.2766244984	-2.0145045164	 0.108117
H	 1.0279102349	-2.2996748651	-3.1752328197	 0.094676
H	 2.5942094147	-0.5208408687	-1.4426132753	 0.078028
H	-0.3003754257	-0.347914245	-2.2255967723	 0.062281
