10
gdb 133469	3.66256	1.21898	1.08905	2.0386	46.31	-0.3082	-0.0713	0.2369	1005.1565	0.050294	-599.07682	-599.069831	-599.068887	-599.109502	24.412	
F	-0.3310873825	 0.1022269431	-0.2371191028	-0.056338
C	-0.0167799088	 1.3725359247	 0.0222041172	 0.243295
F	 1.3100020191	 1.4637252637	 0.1513894311	-0.06187
F	-0.3927284529	 2.1118516533	-1.0227455404	-0.056394
C	-0.6724935258	 1.8462250102	 1.2853717596	 0.262161
C	-0.1542976933	 2.3158329438	 2.4468843663	-0.199507
N	-1.2303942673	 2.5992350921	 3.2567049255	-0.096515
N	-2.3108124326	 2.3400768779	 2.6779752997	 0.011963
O	-1.995766216	 1.8356268348	 1.3620958816	-0.216
H	 0.86453028	 2.4678806964	 2.7558360822	 0.169205
