14
gdb 23337	2.26762	1.58561	1.1144	1.8567	66.36	-0.2538	-0.0444	0.2094	1065.2085	0.098073	-473.68518	-473.677176	-473.676232	-473.718341	28.979	
O	 0.0807159305	 1.2486349502	-0.0897272164	-0.395326
N	 0.1264797658	-0.1537594323	 0.0246572569	-0.307933
C	-1.0262919061	-0.6469730998	 0.0849647345	 0.540955
C	-2.5252416252	-0.3832333904	-0.0137991028	-0.061054
O	-2.5655875833	-1.506383193	-0.9841814909	-0.309772
C	-1.6858172228	-2.0112724539	 0.1205093257	-0.037865
C	-2.7349190186	-1.4540230846	 1.1224645533	-0.087558
C	-2.3676982817	-1.1514070404	 2.5498481657	 0.121788
O	-1.3006711384	-1.4119562978	 3.0443479579	-0.229917
H	 1.0164294358	 1.4774317073	-0.1102890286	 0.313092
H	-3.0936555715	 0.5156382784	-0.2367860324	 0.125281
H	-1.266432871	-3.0094887949	 0.0320745686	 0.125434
H	-3.7184878422	-1.9239380337	 1.0294850524	 0.11652
H	-3.1725135614	-0.6553235452	 3.1380155661	 0.086355
