19
gdb 37727	3.06757	2.02074	1.61883	1.9642	76.08	-0.2357	0.0829	0.3185	885.1299	0.164029	-385.859522	-385.853379	-385.852435	-385.890044	26.328	
C	-0.0112567088	 1.5056691473	 0.2375360341	-0.238156
C	 1.3297977778	 2.193132825	-0.1006544431	-0.256843
C	 2.3320229256	 1.2180415341	-0.699292308	 0.000432
C	 1.9560127203	 0.2472491987	-1.8478822837	 0.042222
O	 3.0587577341	-0.6148888596	-1.3944886566	-0.304508
C	 2.6185994297	-0.1666238073	-0.0639961134	 0.042245
C	 1.2368677742	-0.8341867272	 0.0638885501	-0.072682
C	 0.011053491	 0.0320075321	-0.1124585144	-0.038
C	 0.7179408145	-0.510074756	-1.3332877861	-0.072668
H	-0.2411235191	 1.6127691081	 1.3036243268	 0.10126
H	-0.8365359704	 1.9848145351	-0.3011601198	 0.101264
H	 1.1758013862	 3.0171884722	-0.8063816462	 0.103079
H	 1.7704575242	 2.6449982613	 0.7951578264	 0.103083
H	 3.2809177833	 1.6995491861	-0.9400292606	 0.083122
H	 2.0085540163	 0.5114568718	-2.9039608416	 0.072469
H	 3.3554440692	-0.3298681834	 0.7223120659	 0.072468
H	 1.1625303449	-1.8252898292	 0.4942511882	 0.089687
H	-0.9199785164	-0.4844847336	 0.1135293727	 0.08184
H	 0.2492987535	-1.2548843654	-1.9646804508	 0.089688
