18
gdb 77632	2.14004	1.42917	1.29272	1.2635	81.54	-0.2045	0.0283	0.2328	1119.0796	0.145262	-401.864148	-401.854709	-401.853765	-401.89805	35.262	
C	-0.0169766857	 1.5294789525	-0.0089295327	-0.420931
C	 0.074335616	 0.0219574545	-0.1015562927	-0.136365
C	 0.6891069752	-0.7587110158	-1.2245056169	 0.29774
O	 0.0421015458	-1.7351692229	-1.9489594346	-0.449891
C	 1.9737830033	-0.1166558951	-1.7389306407	-0.233167
N	 2.500019465	 0.0263658825	-0.3378916468	-0.365571
C	 1.3535471112	-0.7659297588	 0.1803797261	 0.131942
C	 1.4896730538	-1.755216836	 1.1838387857	 0.193969
C	 1.631004089	-2.6081716344	 2.0230183127	-0.428713
H	 0.9441874009	 1.989432897	-0.2475444515	 0.148382
H	-0.7772639699	 1.9241607801	-0.6919180936	 0.111172
H	-0.2878975873	 1.8335686494	 1.0071100302	 0.123337
H	-0.7815928488	-0.5165242788	 0.3055365807	 0.096316
H	-0.9043532385	-1.562296607	-1.9318398353	 0.291885
H	 2.5460044223	-0.8323969769	-2.3365352022	 0.119355
H	 1.8889292033	 0.8291945625	-2.2854638681	 0.104329
H	 3.3585257553	-0.5037293249	-0.2263231083	 0.228903
H	 1.7480848392	-3.3549057979	 2.7684267279	 0.187307
