16
gdb 22892	2.30118	1.63515	1.01418	3.1357	71.69	-0.2261	-0.0437	0.1823	1125.7605	0.124664	-471.174579	-471.165839	-471.164895	-471.208476	32.69	
N	-0.0560683829	 1.3710385623	 0.109399451	-0.581252
C	-0.0318256229	 0.0084113595	 0.0298654239	 0.319212
N	-1.086607172	-0.7264304629	-0.0125866912	-0.291317
C	-0.7115038226	-2.1389464996	-0.0241662293	-0.177402
C	 0.8322227416	-2.235435104	-0.0190909431	 0.028518
O	 1.2750073905	-2.8746496391	-1.2052740887	-0.427643
C	 1.2334082084	-0.7704392631	 0.0324775092	 0.314608
N	 2.4676180621	-0.4521522089	 0.0185423628	-0.245465
O	 2.6895791679	 0.9319671822	-0.0088928895	-0.390389
H	 0.783556794	 1.8661461748	-0.1364486158	 0.270369
H	-0.9397986922	 1.8071844916	-0.1015352751	 0.257121
H	-1.1574340125	-2.6455174979	 0.8395649606	 0.108178
H	-1.0989918252	-2.6302162889	-0.9235834519	 0.126237
H	 1.2074363732	-2.7649915394	 0.8680014015	 0.086386
H	 2.2253933694	-2.7234615806	-1.2684786893	 0.28786
H	 3.6506472332	 0.9911285939	-0.0092090851	 0.314978
