17
gdb 54396	3.34072	1.43609	1.2364	2.1167	72.39	-0.2424	-0.0248	0.2176	1041.3897	0.134474	-421.794512	-421.786529	-421.785585	-421.827673	30.324	
C	-0.6227058611	 1.3382405922	 0.0533361656	-0.482578
C	 0.2205730731	 0.0883312077	-0.0265453835	 0.24154
O	 0.929021898	-0.3065882171	 0.8721411579	-0.305747
C	 0.1429406827	-0.7012860825	-1.3095196627	 0.310308
C	-0.8614782568	-1.8908299892	-1.5233476238	-0.247233
C	-0.5390912933	-1.4293783022	-2.9756248784	 0.002037
O	-0.4932210039	-0.0538927331	-2.4642809643	-0.322177
C	 0.9593278053	-1.7752424538	-3.0846452834	-0.090605
C	 1.4257903977	-1.286143667	-1.9356179849	-0.110759
H	-0.3425428436	 2.0234203493	-0.754019064	 0.158661
H	-1.6777250256	 1.0941842527	-0.1103060772	 0.147007
H	-0.48846891	 1.8144531121	 1.0249112185	 0.137874
H	-0.5544708401	-2.8857066688	-1.1989673	 0.115809
H	-1.8804906244	-1.644849308	-1.2142930051	 0.110426
H	-1.2066540756	-1.5742974806	-3.8233654121	 0.087669
H	 1.4567655916	-2.2899826882	-3.8929010911	 0.117377
H	 2.4093174961	-1.2697317935	-1.4928789217	 0.13039
