18
gdb 44911	2.74597	1.76513	1.50974	2.4098	76.11	-0.2129	-0.0173	0.1956	940.4675	0.150854	-401.96977	-401.962952	-401.962008	-402.000786	28.058	
O	-0.0056276545	 0.0133291276	 0.0442204479	-0.316631
C	-0.0057369984	 1.2126634147	 0.0090332206	 0.408732
C	-1.2454678243	 2.1409243474	-0.0349864086	-0.289704
N	-0.7403016386	 3.5205182807	-0.041751054	-0.081978
C	 0.573750324	 3.3907671091	-0.7123149839	-0.203147
C	 1.2027165283	 2.1735014782	-0.0072264114	-0.166392
C	 1.4456272916	 2.5546733853	 1.4405233304	-0.078576
C	 0.6299301269	 3.4189728873	 2.0492392495	-0.053334
C	-0.5420894938	 4.0389868212	 1.3220112212	-0.226008
H	-1.7914727341	 1.9299512853	-0.9638332296	 0.131981
H	-1.9255268884	 1.9455864658	 0.797654521	 0.13239
H	 0.418461984	 3.2096794505	-1.7818200565	 0.107332
H	 1.1594485891	 4.3046124283	-0.5926127786	 0.114478
H	 2.0753311607	 1.7244725277	-0.4811383224	 0.089266
H	 2.2677739968	 2.0807942171	 1.9664814191	 0.102814
H	 0.8019743518	 3.7223742642	 3.0788729563	 0.095103
H	-0.4115714531	 5.1291587528	 1.2668570724	 0.117164
H	-1.4709962879	 3.8810441868	 1.8848405066	 0.116509
