21
gdb 79881	2.36746	1.7128	1.36315	1.9204	82.05	-0.2349	0.0658	0.3006	1065.906	0.182727	-387.027603	-387.019273	-387.018328	-387.059885	33.129	
C	-0.2322451103	 1.5555866654	-0.0823849326	-0.442057
C	 0.0714993425	 0.0705377277	 0.0702370908	-0.053192
C	 1.3152462855	-0.6753314067	-0.3375881651	-0.149668
C	 2.6317785927	-0.0542805154	 0.1683991055	 0.124039
O	 2.7649176643	 1.3952870592	 0.2234687907	-0.301485
C	 2.4134768508	 1.4074273285	 1.6349443079	-0.113557
C	 2.1479407794	-0.1099306043	 1.6201068791	-0.130765
C	 0.7985843842	-0.7086242452	 1.1372710513	 0.307676
C	 0.1338058672	-1.8242650042	 1.8971311807	-0.493643
H	 0.6650853355	 2.1662985282	-0.1311240095	 0.158757
H	-0.7823192531	 1.7082408348	-1.0176900367	 0.109455
H	-0.8748902664	 1.9115193422	 0.7309923789	 0.108074
H	-0.7972194474	-0.5219326214	-0.2228144679	 0.08571
H	 1.2833663081	-1.4560748913	-1.0910489383	 0.077094
H	 3.5446757661	-0.5393963409	-0.186035007	 0.079983
H	 3.2775767846	 1.6978978104	 2.2451304887	 0.101185
H	 1.5753821849	 2.07562753	 1.8554405335	 0.10413
H	 2.6522084945	-0.7213470641	 2.3679662706	 0.074391
H	-0.3647952106	-1.4471198284	 2.7993230772	 0.120286
H	-0.6257224706	-2.3228143801	 1.2861699488	 0.118564
H	 0.8586788281	-2.5826822243	 2.2159070436	 0.115023
