19
gdb 87291	2.93499	1.2235	1.00068	3.1323	76.37	-0.2365	-0.0331	0.2034	1222.9405	0.157789	-423.006783	-422.99795	-422.997006	-423.040845	33.582	
O	 0.219179952	 1.1257600236	 0.2065229409	-0.41844
C	-0.0927059508	-0.2123568074	 0.2777352239	 0.126138
C	-0.8398601239	-0.8106224462	 1.4072841387	-0.371595
C	-1.5478995712	-0.7379559926	 0.042584491	 0.168953
C	-2.5464181073	 0.338494246	-0.0855299471	 0.110296
O	-2.4797356558	 1.4169755378	 0.4792889698	-0.317804
C	-1.7966262403	-1.9583649633	-0.795312386	-0.095843
C	-1.1547186433	-3.2940836123	-0.5176947801	-0.284381
C	-2.6308101292	-3.1120622311	-0.2808523398	-0.262676
H	-0.5612489191	 1.6209791061	 0.5092141953	 0.305974
H	 0.6684323567	-0.8168280572	-0.2051844581	 0.121087
H	-0.5626118093	-1.7935940927	 1.7716739279	 0.125058
H	-1.2277951942	-0.1307860407	 2.1590714203	 0.136323
H	-3.3854742708	 0.125676738	-0.7804944148	 0.09059
H	-1.9246280149	-1.7294687694	-1.8509587765	 0.095004
H	-0.836928369	-3.8828217448	-1.3707364659	 0.119131
H	-0.5105140355	-3.3983347734	 0.3482381129	 0.117004
H	-2.9680985367	-3.0610487846	 0.7489609877	 0.117848
H	-3.3298852375	-3.5884693859	-0.95865991	 0.117333
