12
gdb 25135	3.69991	1.27622	0.94891	5.7843	73.59	-0.2595	-0.1108	0.1487	1115.2227	0.078612	-431.695054	-431.687929	-431.686984	-431.727266	25.904	
N	-0.02579805	 1.321466616	 0.0099468622	-0.500025
C	-0.0384513839	 0.0606342197	 0.0037272702	 0.432145
O	 1.2003591008	-0.6502253532	-0.0069540087	-0.220729
C	 1.2111441866	-1.9845649247	-0.0147757895	 0.107514
C	 0.0841588498	-2.7200659374	-0.0132331517	-0.238292
C	-1.1433587662	-1.96531189	-0.0027353549	 0.215653
N	-1.2093067114	-0.6720065542	 0.005063482	-0.306444
C	-2.390936778	-2.6950379168	-0.0005979708	 0.26387
N	-3.3574514072	-3.3290771493	 0.0006096133	-0.300814
H	 0.9293746884	 1.6765940253	 0.006904786	 0.237881
H	 2.2178341094	-2.3878993266	-0.0222582464	 0.162801
H	 0.0989103517	-3.7992200287	-0.0195185318	 0.146441
