16
gdb 22990	2.77648	1.22684	0.88749	3.7407	69.65	-0.2286	-0.0137	0.2149	1244.2751	0.123709	-471.160433	-471.15147	-471.150526	-471.194707	32.646	
N	 0.1279524476	 1.1076951153	 0.6288714887	-0.528781
C	 0.0751130769	-0.0328104879	-0.1090387492	 0.405129
O	 0.9354798272	-0.3962782276	-0.8824032026	-0.360834
C	-1.234094188	-0.81982392	 0.0460360248	-0.175442
N	-1.0710398821	-2.2942384495	 0.1560504013	-0.305594
C	-2.0447692527	-2.3729412616	 1.2819907766	-0.252454
C	-1.9774899397	-0.8657480572	 1.3646034241	 0.404224
N	-2.2730202881	 0.0552561105	 2.1781717676	-0.251831
O	-2.9131402847	-0.4463205369	 3.3206420431	-0.384723
H	 0.9698878043	 1.6590110805	 0.5885287663	 0.259478
H	-0.5482457978	 1.2834941353	 1.3571694529	 0.270925
H	-1.8940539118	-0.49689152	-0.7749316799	 0.116799
H	-1.3290715747	-2.809150694	-0.6763231547	 0.232288
H	-3.0489791725	-2.7372799826	 1.0233178404	 0.121706
H	-1.6855707775	-2.9265678738	 2.1557953617	 0.138219
H	-3.0759120066	 0.3505770296	 3.8372554589	 0.31089
