22
gdb 102580	2.33847	1.1008	0.86114	1.4964	79.75	-0.224	0.0694	0.2933	1432.5272	0.191256	-441.425367	-441.414453	-441.413509	-441.462128	38.421	
C	-1.2745291713	-0.0590489879	-0.1811201698	-0.2373
O	 0.0149876289	-0.6360836009	-0.0949876557	-0.258381
C	 0.6495709342	-0.5301783812	 1.1704493485	 0.095077
C	 0.2567147873	-1.6808289689	 2.0986546103	-0.082649
O	-1.0893198884	-1.4993286172	 2.5151563969	-0.423188
C	 2.1421641835	-0.5580599052	 0.8926453994	 0.012057
C	 2.8644335364	 0.6811221232	 0.4981700423	-0.258658
N	 3.1576421866	 0.0298600678	 1.7695440979	-0.089436
C	 2.7775428994	 0.7279022088	 2.9891962363	-0.314236
H	-1.2546796808	 1.0075510771	 0.093213844	 0.097718
H	-1.585662664	-0.1431318452	-1.2259805266	 0.117961
H	-1.9989106721	-0.5694636995	 0.4614361525	 0.128599
H	 0.3608819839	 0.4143511425	 1.6535375615	 0.071985
H	 0.3864630478	-2.623708841	 1.5464147572	 0.097229
H	 0.9396454609	-1.6965153721	 2.9628690978	 0.092232
H	-1.3661201715	-2.2855525995	 2.9944008724	 0.289027
H	 2.4636107497	-1.4970012548	 0.4419747284	 0.093211
H	 3.6509222971	 0.6545300206	-0.2513986179	 0.114112
H	 2.2918729586	 1.6085311263	 0.5225002282	 0.104237
H	 1.8830865281	 1.3641288511	 2.9006760872	 0.104029
H	 2.6058108639	 0.0022276975	 3.7911156654	 0.121935
H	 3.6117433118	 1.3692751884	 3.2916076537	 0.124439
