21
gdb 20023	4.535	1.13343	0.99131	1.2339	80.37	-0.2177	0.0879	0.3057	1259.736	0.188373	-329.083083	-329.074347	-329.073402	-329.116835	32.51	
C	-0.1447090878	 1.6114683143	-0.2393975166	-0.373805
C	 0.0146856453	 0.1744095748	 0.2514827564	-0.108711
N	-1.2620849548	-0.5281637118	 0.1675545492	-0.087073
C	-1.5470166259	-1.2757966769	-1.0539540296	-0.270072
C	-1.2963729119	-1.991491068	 0.2306403983	 0.01077
C	-0.0767567556	-2.8365864343	 0.4293938329	 0.016749
C	 0.254372524	-3.3585842942	 1.8092392947	-0.26711
C	-0.2462053864	-4.3032548199	 0.7483519072	-0.280416
H	 0.796877489	 2.1613338459	-0.1435650474	 0.107512
H	-0.4433931564	 1.6323443996	-1.292779876	 0.116226
H	-0.9144906713	 2.1304218467	 0.3384622715	 0.125269
H	 0.8159240118	-0.3203948353	-0.3226594555	 0.078173
H	 0.3286185986	 0.1699800648	 1.3020705253	 0.103513
H	-2.5507240147	-1.1778125038	-1.460356473	 0.109837
H	-0.7597199168	-1.3367065214	-1.8065048905	 0.100832
H	-2.1632140005	-2.3627401679	 0.7795559278	 0.080938
H	 0.7706113574	-2.5903220861	-0.2017480203	 0.083986
H	 1.2971175651	-3.4132262224	 2.1015534953	 0.111856
H	-0.4216080561	-3.1025623919	 2.6185367785	 0.115584
H	-1.2577989681	-4.6841763413	 0.844398868	 0.113861
H	 0.4517063449	-5.0065958709	 0.3082865238	 0.112082
