16
gdb 97191	3.81095	1.19308	0.9375	2.812	72.59	-0.2368	0.0135	0.2504	1215.9497	0.125929	-471.233016	-471.224797	-471.223853	-471.266341	29.766	
C	-0.4522584425	 1.4052415383	-0.2577985924	-0.328944
N	-0.1040808165	 0.0076485631	-0.0817144709	-0.350953
C	 0.7633973155	-0.5228650779	-0.821476396	 0.498615
N	 1.174211039	-1.8390464087	-0.6255508569	-0.400261
C	 1.7827084064	-2.6276371149	-1.5892657655	 0.457772
N	 1.7773359175	-3.8886859221	-1.5193155302	-0.565247
O	 2.3685280079	-1.904767331	-2.5907899738	-0.22843
C	 2.5896055914	-0.5471623442	-2.2704158664	-0.010646
O	 1.3927877577	 0.08563454	-1.8738168991	-0.235468
H	 0.2622431526	 1.9717366232	-0.8664137061	 0.118711
H	-1.4394252262	 1.4847107972	-0.7292366656	 0.129369
H	-0.530620428	 1.8777108199	 0.7267226454	 0.125711
H	 0.6952750381	-2.3370580764	 0.1099988348	 0.284059
H	 2.3295380549	-4.2882403948	-2.2749133721	 0.232151
H	 3.3414782213	-0.4662588341	-1.4743159609	 0.126937
H	 2.9260960709	-0.0548037177	-3.1815852441	 0.146624
