17
gdb 94889	2.81145	1.72993	1.50596	0.8292	66.41	-0.2319	0.0441	0.276	927.7869	0.136073	-458.885561	-458.878196	-458.877251	-458.917141	29.277	
O	-0.0136272351	 1.3808045944	 0.5726490695	-0.424129
C	 0.012663804	 0.0679941234	 0.0378418627	 0.020422
C	 0.756030533	-0.846987988	 1.0571951623	-0.096154
O	-0.2483619694	-1.5256190136	 1.8447933856	-0.292332
C	-1.3904130355	-1.607696828	 1.0619247991	 0.260325
C	-2.3773550558	-0.46804578	 1.048865126	-0.370863
C	-1.3526076127	-0.5975730183	-0.0456329889	 0.269721
O	-1.7053572325	-1.5560344384	-1.0559272144	-0.327008
C	-1.6502584514	-2.6236750942	-0.0571305161	-0.151924
H	-0.598389258	 1.9107010913	 0.0206505052	 0.288275
H	 0.5075284054	 0.0388234589	-0.9421709075	 0.092524
H	 1.3690001293	-1.5847737385	 0.5224881206	 0.104305
H	 1.3933716928	-0.2703090976	 1.7315854964	 0.129496
H	-3.4218670733	-0.6470372361	 0.8128490279	 0.123544
H	-2.1736292323	 0.3059117169	 1.7792091754	 0.143165
H	-0.7971632182	-3.2873537017	-0.2347378331	 0.117705
H	-2.5778758802	-3.2050209205	-0.0237607309	 0.112929
