16
gdb 70508	2.83933	1.61996	1.17326	5.6045	75.38	-0.2119	-0.0395	0.1724	1024.2502	0.124342	-437.891754	-437.883885	-437.882941	-437.923879	30.4	
O	 0.0645038068	 1.3762760308	-0.0303316019	-0.477797
C	 0.0100671902	-0.006290465	-0.0013422109	 0.34639
C	-0.4705207227	-0.7844252985	-1.2065332508	-0.352539
C	-1.3025971889	-0.7893873293	 0.0658957893	-0.08683
N	-1.052850947	-1.8434431323	 1.017240312	-0.262746
C	 0.2265178902	-1.8067819218	 1.4590919227	-0.082802
C	 0.9089623619	-0.7379530074	 0.9473844441	 0.073226
C	 2.2075426222	-0.266575937	 1.3131788576	 0.055052
O	 2.6866718161	 0.7900427442	 0.9092565391	-0.342933
H	 1.0028689326	 1.5918100505	 0.1104934777	 0.300771
H	-0.8835927119	-0.1750613744	-2.0026329306	 0.12741
H	 0.0394435626	-1.6904779642	-1.5174528193	 0.110048
H	-2.2852303243	-0.3342059127	 0.0865077063	 0.117762
H	-1.6943710367	-2.5947874001	 1.2021895774	 0.262854
H	 0.5899592086	-2.5653596746	 2.1411830429	 0.14372
H	 2.7841582503	-0.9135796082	 2.0085306445	 0.068415
