14
gdb 2628	6.74947	1.17576	1.03942	2.5044	59.93	-0.2484	-0.0279	0.2205	1055.7236	0.111045	-324.530718	-324.522704	-324.52176	-324.563884	27.149	
O	 0.0086096175	-0.0287075901	-0.5448995845	-0.234706
C	 0.2774143469	 1.0616767276	-0.114527131	 0.150355
C	 1.3326221687	 1.9812485206	-0.7063091829	-0.224507
N	 0.9801192192	 3.376088415	-0.4755965836	-0.28754
C	 2.0550117898	 4.3290212217	-0.7635992053	-0.30944
C	 2.5150025437	 4.3533236823	-2.1582125919	 0.306599
C	 2.8499026519	 4.3450790572	-3.3131751479	-0.459394
H	-0.2289274434	 1.4865946047	 0.7816224003	 0.085734
H	 2.2643329801	 1.7724743934	-0.157981059	 0.133635
H	 1.5111334373	 1.7024686706	-1.7550593269	 0.126446
H	 0.1716134629	 3.6184516033	-1.0405382383	 0.230139
H	 1.7073760871	 5.3285360082	-0.4774442333	 0.139633
H	 2.8996525517	 4.0963167633	-0.1028364308	 0.139852
H	 3.1572066065	 4.3454807924	-4.3298887647	 0.203195
