20
gdb 91795	2.36596	1.71465	1.27536	1.0849	73.88	-0.2323	0.0594	0.2917	1059.0614	0.171296	-440.266658	-440.257935	-440.25699	-440.299406	34.19	
C	-0.3297756816	 1.3476718176	 0.0297311612	-0.484783
C	 0.0238845253	-0.1167971885	-0.0464852502	 0.292259
C	-0.7002221606	-1.1417132622	 0.7671015008	-0.310512
N	 0.6748186991	-0.7455877225	 1.1168641015	-0.138179
C	 1.6948077516	-1.6860106603	 0.602702821	-0.174952
C	 1.4697956215	-1.8987818537	-0.9027444717	 0.051894
O	 0.7217512558	-3.082496526	-1.1296324886	-0.42974
C	 0.656221993	-0.6374666774	-1.3325454805	 0.061596
O	-0.2707282358	-0.9223558653	-2.3764567279	-0.445102
H	 0.5564793483	 1.9718961046	-0.1306433336	 0.121063
H	-1.0661490714	 1.6070681902	-0.7389375472	 0.121362
H	-0.7471518734	 1.5971764699	 1.0082825676	 0.127902
H	-1.4562901359	-0.8079038269	 1.4730064645	 0.111949
H	-0.8515172836	-2.1353961431	 0.3561890754	 0.132714
H	 2.6755054576	-1.2312137804	 0.7777420256	 0.108461
H	 1.6575639192	-2.6342294409	 1.1459921242	 0.123412
H	 2.4236216291	-1.9504069793	-1.4463834356	 0.07294
H	 0.3299602311	-2.9717402001	-2.0073985098	 0.280969
H	 1.336286402	 0.1196894124	-1.7390152196	 0.088451
H	-1.0963619914	-1.1846840181	-1.9543991771	 0.288294
