15
gdb 67082	2.74398	1.57534	1.35616	4.2781	70.4	-0.2477	0.0031	0.2508	970.0127	0.113585	-416.742933	-416.735709	-416.734764	-416.774468	28.427	
O	-0.1654559728	 1.4276835806	 0.0527367374	-0.435209
C	-0.0235991788	 0.0809693703	 0.0188328783	 0.355112
C	-1.0511444929	-1.0085518088	-0.0586785016	-0.146726
C	-0.4256846827	-1.6202938575	-1.3037488997	-0.269564
C	 0.9034839585	-0.9298058212	-0.85383721	 0.107688
N	 1.3090882943	-1.5647679836	 0.4322830322	-0.330103
C	 0.0932170833	-1.0143285668	 1.0250570055	-0.120239
C	 1.9371513852	-0.5975200339	-1.7973813711	 0.191127
N	 2.7487630368	-0.3001113167	-2.5658991731	-0.340155
H	 0.6037077872	 1.8147540172	 0.489529719	 0.306684
H	-2.0938643991	-0.9547658174	 0.2228774428	 0.107996
H	-0.3833019429	-2.7100819281	-1.4075961046	 0.10409
H	-0.8192345788	-1.1692391457	-2.2167462081	 0.133543
H	 1.3249705351	-2.5845170825	 0.3675928477	 0.220985
H	-0.1087345526	-1.0187676659	 2.0877340951	 0.114769
