16
gdb 7486	3.50096	1.52382	1.32434	2.7282	60.85	-0.2499	-0.0293	0.2206	951.1049	0.128207	-420.85495	-420.846709	-420.845764	-420.888375	29.118	
O	 0.1541103809	 1.4597532663	-0.1400246301	-0.477951
C	 0.0250449589	 0.0669128522	 0.0042829788	 0.341483
C	 0.9456799853	-0.5709420476	-1.0415754792	-0.302267
C	 2.3842998852	-0.1577319878	-0.7910360056	 0.152697
O	 3.1296059066	-0.7673766577	-0.0653615303	-0.243006
C	 0.1580748099	-0.5512885067	 1.4217023422	-0.132772
O	-1.0561093904	-1.3059143463	 1.2288362255	-0.2689
C	-1.3971619268	-0.5472624863	 0.054530892	-0.131567
H	-0.3706696125	 1.8909142766	 0.5431931992	 0.285292
H	 0.8704840773	-1.6587571449	-0.9652117347	 0.136959
H	 0.6254904131	-0.2457980371	-2.0372715963	 0.115799
H	 2.7127485386	 0.7730580106	-1.2991274996	 0.09553
H	 1.0263261689	-1.1858007998	 1.6195830431	 0.136825
H	 0.0584275524	 0.1962036843	 2.2236859437	 0.089931
H	-2.175330134	 0.2060499086	 0.2535204029	 0.090706
H	-1.7153618633	-1.1829328745	-0.7791058716	 0.111243
