17
gdb 111780	3.23944	1.32349	1.21271	2.4947	68.62	-0.2258	-0.0306	0.1952	1073.5719	0.135577	-458.926854	-458.918868	-458.917924	-458.959764	29.575	
C	 0.072981463	 1.2723194713	 0.269049088	-0.246199
O	-0.0413191421	-0.0003056514	-0.339224773	-0.248303
C	-1.2889410305	-0.5861906598	-0.1740636155	 0.152382
C	-1.3438415492	-2.1018508516	-0.5519601647	-0.256126
C	-0.2587401563	-2.6449122408	 0.3960833052	-0.076887
O	-0.5763897452	-1.9251830062	 1.6246120838	-0.277573
C	-1.7014160864	-1.1267839665	 1.2454885474	-0.081726
C	-2.5431247088	-2.1325292999	 0.4254957728	 0.440612
O	-3.6301722927	-2.6203837631	 0.4573904668	-0.306961
H	 1.0713795746	 1.6479378155	 0.0361390188	 0.135521
H	-0.6745294575	 1.9763345934	-0.1260668496	 0.11056
H	-0.0411121281	 1.2101100318	 1.3594401288	 0.123201
H	-2.0951270503	-0.0008915378	-0.6402338445	 0.088741
H	-1.3831963278	-2.4670719184	-1.5744076542	 0.100672
H	-0.3416643277	-3.7236051733	 0.56367966	 0.116397
H	 0.7552126428	-2.3897879066	 0.0782942734	 0.126671
H	-2.0600670777	-0.5280195767	 2.0780359467	 0.099019
