19
gdb 66133	2.60534	1.51749	1.28144	3.2853	74.49	-0.2363	-0.0263	0.21	1061.722	0.158529	-423.021449	-423.013044	-423.0121	-423.054472	32.092	
C	-0.3524205822	 1.747168612	 0.258651012	-0.448731
C	 0.0149743969	 0.255601998	 0.1664526892	 0.161722
C	 0.9118253421	-0.0763044719	-1.049085042	-0.134151
O	 1.7642118625	-1.1546422634	-0.6662002746	-0.257052
C	 1.896249379	-1.1404064785	 0.7286518113	 0.122178
C	 2.3035165925	 0.1435678824	 1.4031095076	-0.350029
C	 0.8400699933	-0.2684253415	 1.3424722478	-0.112338
C	-1.2944801805	-0.5318743045	 0.124084086	 0.140151
O	-1.7437071797	-1.0923343412	-0.8399064805	-0.248464
H	 0.5447350772	 2.3477074033	 0.4333460746	 0.128981
H	-0.8288563898	 2.0940695485	-0.6641056089	 0.132783
H	-1.0459782428	 1.9351161071	 1.0854091067	 0.122922
H	 0.3213472425	-0.3979615007	-1.9097995397	 0.136506
H	 1.5060478322	 0.8027377119	-1.3340369889	 0.091264
H	 2.199953344	-2.1033111069	 1.1211374716	 0.106557
H	 2.7904922258	 0.0668904891	 2.3693377851	 0.118685
H	 2.6518000493	 0.9704217966	 0.7933662225	 0.120499
H	 0.3254202219	-0.5316735358	 2.2605430607	 0.090237
H	-1.8494593642	-0.5267071544	 1.0921949496	 0.07828
