20
gdb 114977	2.24591	1.45882	1.03832	4.2278	81.13	-0.2373	-0.0298	0.2075	1220.2307	0.172582	-403.205024	-403.196303	-403.195359	-403.238587	33.188	
C	 0.0028437818	 1.6166420335	 0.0222258951	-0.397462
C	-0.0692733883	 0.0879902599	 0.0407718521	-0.164258
C	 0.7014851086	-0.5549542518	 1.2130570556	 0.010774
C	 0.5723977356	-2.0885126678	 1.2184452129	-0.270619
C	 1.5349781107	-2.7395297223	 0.262210461	-0.071187
C	 2.6752159339	-2.1453970627	-0.094355984	-0.132195
C	 3.0740959289	-0.8221767598	 0.449764224	 0.382543
O	 4.1793731176	-0.3402968295	 0.2644254949	-0.382915
N	 2.1215640109	-0.200501837	 1.2235967428	-0.323871
H	 1.0301654708	 1.9688805782	-0.1129948277	 0.126099
H	-0.5929592651	 2.0255095245	-0.7988445747	 0.120987
H	-0.3817817371	 2.0453655432	 0.9552651269	 0.112596
H	-1.1180341062	-0.2269252506	 0.1155153112	 0.095275
H	 0.3147676648	-0.3161746533	-0.9032449753	 0.110047
H	 0.2721113972	-0.1701192618	 2.1463069158	 0.085066
H	 0.7652193338	-2.4767484086	 2.2287232941	 0.124863
H	-0.4585011785	-2.3679995067	 0.9766533837	 0.112163
H	 1.2919615905	-3.7334996591	-0.1051933831	 0.105889
H	 3.3991253108	-2.6052010633	-0.7567917072	 0.112311
H	 2.3784803594	 0.733943295	 1.5063467218	 0.243892
