17
gdb 67074	2.65381	1.58938	1.34656	4.6368	77.27	-0.2456	0.0066	0.2522	1011.525	0.136994	-380.823255	-380.815565	-380.814621	-380.85528	29.797	
C	-0.0509380594	 1.5596837677	-0.0797276077	-0.526094
C	 0.0061639847	 0.071850969	-0.0230429684	 0.295416
C	 0.5886932499	-1.0168889158	-0.9074013334	-0.148403
C	 1.3683258794	-1.6299934408	 0.2479953869	-0.276946
C	 0.3038206883	-0.9524619164	 1.1713957451	 0.158605
N	-1.0014277564	-1.6115722393	 0.8781969367	-0.338402
C	-0.8990717764	-1.0327652382	-0.4619934422	-0.069505
C	 0.6047916412	-0.630859614	 2.5446403987	 0.189819
N	 0.8739735578	-0.3528996703	 3.6343130159	-0.342406
H	 0.9197655571	 2.0100445115	 0.1539428607	 0.134131
H	-0.336893465	 1.887715853	-1.0847375218	 0.131316
H	-0.7874574339	 1.9562960651	 0.6267556012	 0.143408
H	 0.8816457037	-0.9377587564	-1.946189678	 0.097754
H	 1.4557098557	-2.7194384495	 0.3318037481	 0.101462
H	 2.3497387271	-1.1654797184	 0.3651111045	 0.125381
H	-0.9367086845	-2.6314965537	 0.90926342	 0.217502
H	-1.7291985593	-1.0083694535	-1.1560618663	 0.106962
