16
gdb 127863	2.52232	1.58289	0.97852	4.4041	81.93	-0.1888	-0.0261	0.1627	1155.4308	0.125302	-434.058028	-434.049756	-434.048812	-434.090771	31.04	
C	 0.0342372395	 1.4005516474	 0.1284269198	-0.321708
N	 0.0375845788	-0.0505359942	 0.1199888448	-0.318123
C	-1.0845054581	-0.6632214569	-0.0300031922	 0.225887
C	-2.412864335	-0.0670639163	-0.1991808252	-0.07383
N	-3.5391040921	-0.7039397758	-0.3496577073	-0.187849
N	-3.4810836255	-2.0349531802	-0.350401992	-0.231032
C	-2.3181116444	-2.7564336679	-0.2035009889	-0.12552
C	-1.1280247757	-2.1238970919	-0.0447419987	 0.298213
O	 0.0522299047	-2.765297167	 0.1047942394	-0.407667
H	 1.0588933044	 1.7577321922	 0.2633403916	 0.116725
H	-0.3440013334	 1.8337866521	-0.8113214548	 0.107484
H	-0.5715866159	 1.8228649817	 0.9460561465	 0.107504
H	-2.5073022515	 1.0119235793	-0.2048300697	 0.122148
H	-4.3662049487	-2.4970715779	-0.4681140862	 0.276354
H	-2.4260433792	-3.8349452354	-0.2242861414	 0.115317
H	-0.0926121979	-3.7179376691	 0.0801406743	 0.296096
