18
gdb 117467	6.26577	0.65413	0.60933	4.8481	72.53	-0.2597	-0.0008	0.2589	1815.7974	0.145089	-476.249427	-476.239244	-476.2383	-476.28657	34.209	
C	-0.0524107435	 1.2339994648	 0.0394096888	-0.392395
C	-0.0248113562	-0.276393406	-0.0820448345	-0.045973
O	 0.613644444	-0.6035846428	-1.33849713	-0.241534
C	 0.7297318944	-1.9101443454	-1.6155378968	 0.434778
O	 0.3362051759	-2.8060174445	-0.916130508	-0.342396
C	 1.4750229136	-2.0957565478	-2.9355284631	-0.220514
O	 1.2995911431	-3.381559581	-3.4793236932	-0.165376
C	 1.9370708337	-4.4016637008	-2.8551933799	 0.152223
N	 1.7914833436	-5.5763308118	-3.2853483669	-0.442198
H	 0.9602071398	 1.646656881	 0.0275145718	 0.131762
H	-0.617633645	 1.6821767323	-0.7823694258	 0.134081
H	-0.5296027491	 1.5191325623	 0.9815301836	 0.128712
H	 0.5392032697	-0.7462306707	 0.7296144854	 0.126202
H	-1.0293723707	-0.7095661928	-0.0788266853	 0.131393
H	 1.0983195119	-1.3841506765	-3.6723864597	 0.154693
H	 2.536071868	-1.8614865734	-2.7645726674	 0.135461
H	 2.5559660614	-4.08091301	-2.0087268327	 0.090416
H	 2.3430165155	-6.2218958069	-2.7242923164	 0.230664
