14
gdb 21790	5.803	1.26069	1.11684	2.2695	64.65	-0.2438	-0.0368	0.207	1015.117	0.108434	-378.750333	-378.743117	-378.742173	-378.783579	25.118	
O	-0.5659423304	 1.1581464378	 0.9498413199	-0.232948
C	 0.065783533	 1.0852694542	-0.070820711	 0.156772
C	 1.4474078426	 1.6991658434	-0.2683867861	-0.384615
C	 1.4021992176	 2.7590945389	-1.3257876461	 0.351687
C	 1.9003606678	 2.8127496931	-2.6134893967	-0.303485
C	 1.4920217479	 4.0695770303	-3.1080918842	 0.002177
N	 0.789220797	 4.7520551566	-2.2089295537	-0.220214
N	 0.743775665	 3.9357011517	-1.1398948275	-0.236575
H	-0.3390088752	 0.5771011036	-0.9738594918	 0.091292
H	 1.7903783143	 2.0891607935	 0.6951539297	 0.134415
H	 2.1371129732	 0.91151506	-0.5909337208	 0.138899
H	 2.4818226911	 2.0539885436	-3.1121302633	 0.106415
H	 1.6842573216	 4.5047134635	-4.0777326147	 0.115877
H	 0.2554016945	 4.2389166297	-0.3129173138	 0.280303
