21
gdb 117556	2.33737	1.01631	0.78034	1.6448	84.94	-0.2562	0.0508	0.307	1538.5744	0.179871	-387.036095	-387.025805	-387.024861	-387.072179	37.095	
C	-0.130595257	 1.5977267746	-0.0943965016	-0.383987
C	-0.033279052	 0.0709806001	-0.0179992934	-0.183678
C	-1.4089377047	-0.602049965	-0.0839177102	-0.161779
C	-1.3813441363	-2.1450940432	 0.0869470628	-0.240909
C	-2.7396031952	-2.661346089	 0.243686489	 0.323835
C	-3.8653451733	-3.0581908803	 0.3862577685	-0.446232
C	-0.6250212468	-2.8142641703	-1.0591388049	 0.099066
C	-1.0539921952	-4.0504427256	-1.7207674591	-0.188884
O	-1.2348773316	-2.7744643062	-2.346143067	-0.234664
H	 0.859104587	 2.0622222936	-0.0472837063	 0.112942
H	-0.6046752321	 1.9161725021	-1.0290734863	 0.120385
H	-0.7278003268	 1.9980443055	 0.7322279655	 0.115863
H	 0.6032023756	-0.2885577667	-0.8349453842	 0.106557
H	 0.4701219904	-0.2174380505	 0.9149179003	 0.093638
H	-2.052220779	-0.1879435559	 0.7004104389	 0.105584
H	-1.8949238552	-0.3767590402	-1.0399304143	 0.124274
H	-0.8212557706	-2.3748928628	 1.0062222844	 0.105654
H	-4.8590622932	-3.4109602387	 0.5117593789	 0.195056
H	 0.4412407297	-2.5854152376	-1.0671297986	 0.096302
H	-0.3090066771	-4.6949790284	-2.1855911514	 0.110971
H	-1.9698799068	-4.5372761556	-1.3954121411	 0.130008
