16
gdb 49102	2.04392	1.58742	0.90677	4.9924	87.13	-0.2114	-0.0578	0.1536	1224.0413	0.124189	-400.745166	-400.7367	-400.735756	-400.778408	31.174	
O	-0.0299054845	-0.1086238067	 0.1564437005	-0.304276
C	-0.0110858286	 1.1103877254	 0.123056498	 0.024172
C	 1.1916616861	 1.8947453363	 0.0127537011	 0.076573
C	 1.2718414626	 3.2560905354	-0.0588399424	 0.187018
N	 2.5730427251	 3.6897018862	-0.2345108485	-0.365256
C	 3.4850043736	 2.5704685603	 0.0650606144	-0.183727
C	 2.5873482465	 1.3230061928	-0.1246607927	-0.299412
C	 0.2136854088	 4.1970518216	-0.0057288747	 0.266435
C	-0.6566792373	 5.026898131	 0.0488900751	-0.415316
H	-0.9505626302	 1.7010822981	 0.1866413509	 0.062325
H	 2.8105202036	 4.6163476196	 0.0871075146	 0.249761
H	 4.3493867024	 2.5875339316	-0.6029246876	 0.120251
H	 3.8494208034	 2.6390650776	 1.099677127	 0.112264
H	 2.7942942182	 0.5360108147	 0.6037501974	 0.132237
H	 2.7235501132	 0.8797146693	-1.1190341255	 0.127311
H	-1.4403288628	 5.7429277866	 0.0945366925	 0.209641
