18
gdb 40319	2.83051	1.40323	1.0965	1.6506	70.96	-0.2478	0.0775	0.3253	1122.3888	0.147327	-439.003439	-438.995138	-438.994193	-439.036941	30.776	
C	-0.4932808342	 0.5467660906	-0.603158219	-0.169686
O	 0.2742799357	 1.3915439611	 0.2715546106	-0.245741
C	 0.4660600419	-0.0200850404	 0.3503697757	-0.011679
C	 0.000772335	-0.6829719564	 1.6207844336	 0.275269
C	 0.4764429234	-0.1235806638	 2.9138736496	-0.274505
N	-0.9214027837	 0.0599242827	 2.482148337	-0.353945
C	-0.2483953297	-2.1556449568	 1.4759167913	-0.001918
C	-1.3686595837	-2.8223751208	 2.1460236609	-0.167355
O	-1.4223283619	-2.5289057573	 0.7463027523	-0.241567
H	-1.5559872315	 0.4888994528	-0.3801136405	 0.135228
H	-0.2329743553	 0.6194933356	-1.656831147	 0.124548
H	 1.4270823961	-0.3667576809	-0.0328513903	 0.100959
H	 0.610691758	-0.7786779893	 3.7701238506	 0.118354
H	 1.1412468321	 0.735176855	 2.8770722272	 0.125812
H	-1.0166096257	 0.9997810335	 2.0982871838	 0.245466
H	 0.63374557	-2.7477512932	 1.2235409105	 0.091455
H	-1.2885951831	-3.8792029721	 2.3972163233	 0.109857
H	-2.0268528332	-2.2223058904	 2.7680765201	 0.139448
