16
gdb 28447	3.13668	1.38933	0.96859	0.4996	76.21	-0.2118	-0.0085	0.2033	1161.5979	0.125713	-437.978271	-437.970347	-437.969403	-438.010626	30.478	
C	-0.0645641462	 1.5447445392	 0.0060185785	-0.490723
C	-0.0085587683	 0.0423093255	-0.0397615238	 0.168586
C	-0.1152245706	-0.6997421397	-1.2131501216	-0.130302
C	-0.0575437607	-2.0895136349	-1.2048942144	-0.233101
C	 0.1117457821	-2.7081608171	 0.029984193	 0.428965
O	 0.1742404878	-4.0558654703	 0.0963913875	-0.420374
N	 0.2182068539	-2.0381891079	 1.1764615302	-0.466551
C	 0.1587333724	-0.7111519568	 1.1300184528	 0.370686
O	 0.2689692087	-0.0519097324	 2.3056875927	-0.413531
H	 0.8524978768	 1.9686711008	 0.4299252171	 0.135217
H	-0.1990903613	 1.9587260771	-0.9968211824	 0.117224
H	-0.8899691608	 1.8972989194	 0.6343284742	 0.135228
H	-0.2466213293	-0.1763797154	-2.1559166028	 0.102423
H	-0.1386620641	-2.6811865527	-2.1067441775	 0.105136
H	 0.2921534913	-4.2753911276	 1.0300823519	 0.295531
H	 0.3756427183	-0.7297290971	 2.9864490447	 0.295584
