13
gdb 23739	3.36831	2.31247	1.38283	2.3275	61.63	-0.266	-0.0378	0.2282	820.8051	0.096767	-402.813357	-402.80682	-402.805876	-402.844235	23.793	
C	-0.0298217946	 1.5326602144	 0.0166654169	-0.502521
C	-0.0072293947	 0.0319162414	-0.011673767	 0.09208
C	-0.0406812432	-0.7291189519	-1.17489091	-0.033697
N	-0.0203493554	-2.0677769767	-1.1916545478	-0.254155
C	 0.0353981003	-2.6575353787	-0.0030140342	 0.072145
N	 0.0724004811	-2.0493839378	 1.1886475143	-0.301914
C	 0.0502748225	-0.739600369	 1.1517760973	 0.307213
F	 0.0862734053	-0.1100582193	 2.3209679112	-0.05887
H	 0.8611337448	 1.9331083949	 0.5110417242	 0.148391
H	-0.0714211196	 1.9379932949	-0.9972818442	 0.132553
H	-0.896655142	 1.9055115932	 0.5718736408	 0.148403
H	-0.086118933	-0.2318636319	-2.1421527565	 0.120954
H	 0.0529031983	-3.7438500935	 0.010649695	 0.129419
