21
gdb 115492	2.41559	1.06148	0.79551	3.2328	81.39	-0.2279	0.0217	0.2496	1469.2293	0.182348	-424.228928	-424.219127	-424.218183	-424.264264	35.636	
O	 0.325946801	 1.2242324002	 0.2913400902	-0.424572
C	 0.0449941033	-0.1471843312	 0.0700104458	-0.063005
C	-1.4561834986	-0.4377085437	-0.1143452939	-0.037813
C	-1.7484548993	-1.957117015	-0.2651779424	-0.239237
C	-2.3191537692	-2.4217245682	 1.1005262148	-0.306005
C	-2.7144164259	-1.1254212454	 1.7749929529	 0.318014
C	-3.4985604339	-1.1232708252	 3.0460024782	-0.178165
O	-3.6544682833	 0.2028877622	 3.517703778	-0.41439
C	-2.2632386658	-0.0621804698	 1.1084423235	-0.18884
H	-0.0749672062	 1.4682478309	 1.1318036649	 0.284313
H	 0.587330753	-0.4192346943	-0.8423886562	 0.104252
H	 0.4395273495	-0.7739173867	 0.8870901511	 0.080017
H	-1.7839872872	 0.1255929219	-0.9968504347	 0.076655
H	-2.4950076006	-2.1111471157	-1.0491555352	 0.105311
H	-0.85884448	-2.5236329522	-0.558255385	 0.096313
H	-3.1653956366	-3.1103479195	 0.9841237995	 0.099557
H	-1.5736547211	-2.9611620731	 1.7018122515	 0.104569
H	-4.4771680044	-1.6040472198	 2.8666770455	 0.09579
H	-2.9821765109	-1.7570697908	 3.7900541265	 0.09373
H	-4.2135880562	 0.1788590907	 4.2991196477	 0.289871
H	-2.4328689777	 0.9612490047	 1.4205465674	 0.103634
