21
gdb 91911	2.41236	1.46848	1.02316	2.3969	77.91	-0.2556	0.0736	0.3292	1209.7858	0.183301	-424.22802	-424.219361	-424.218417	-424.260981	33.899	
C	-0.0360445876	 1.5376147939	 0.0378097431	-0.403897
C	 0.0280118113	 0.0045150819	 0.0097986929	-0.018343
C	 0.6639136156	-0.5192407481	-1.2881533731	-0.203167
C	 0.8384300501	-2.0342297932	-1.2505053996	 0.11667
O	 1.2662593056	-2.449071928	-2.5410418732	-0.439649
C	 1.8368450763	-2.4542645789	-0.1594743474	-0.261083
C	 1.6334481217	-1.7102010553	 1.149222067	 0.026098
O	 2.187391743	-0.387820617	 1.2143990867	-0.257366
C	 0.7629176639	-0.5238631267	 1.2276598549	 0.06921
H	 0.9725263376	 1.9628310739	 0.0312206644	 0.13281
H	-0.5743115516	 1.9225022419	-0.8340985099	 0.11356
H	-0.5482272721	 1.8987986824	 0.9359093551	 0.109988
H	-0.9990427515	-0.3856740619	 0.073027082	 0.074737
H	 0.036587983	-0.2545562744	-2.1451821241	 0.102431
H	 1.6416706423	-0.0494856281	-1.4421903144	 0.115343
H	-0.1423425245	-2.4853588321	-1.0178201899	 0.059675
H	 1.4042442118	-3.4015791841	-2.5194248396	 0.278908
H	 1.7624105056	-3.5340188527	 0.0205942333	 0.088802
H	 2.8519726692	-2.2563328972	-0.5234658021	 0.123749
H	 1.7941707084	-2.288606597	 2.059322845	 0.089421
H	 0.3049971719	-0.2817202293	 2.1892455392	 0.082106
