12
gdb 25374	6.32402	0.93226	0.81249	4.424	80.34	-0.2539	-0.0899	0.164	1286.0184	0.076594	-435.48903	-435.481511	-435.480567	-435.521423	26.888	
O	-0.1895105554	 0.1004842273	-0.0014191132	-0.235675
C	 0.0180041818	 1.28712659	 0.0075307748	 0.078568
C	 1.363250267	 1.8875560099	-0.0022317345	 0.286532
N	 2.5361043965	 1.3167263075	-0.0212693929	-0.259055
C	 3.4266262244	 2.3540579186	-0.0214943387	-0.186945
C	 2.7452270761	 3.5473170555	-0.0023375167	 0.189938
O	 1.4135101688	 3.2470902305	 0.0100517056	-0.186678
C	 3.1476523147	 4.8901885288	 0.0058445107	 0.229559
C	 3.5170999896	 6.036006356	 0.0125256486	-0.376587
H	-0.7938429236	 2.0426917475	 0.024149722	 0.101705
H	 4.4941049903	 2.2020530444	-0.0351712497	 0.148045
H	 3.8411533398	 7.0479444839	 0.018451574	 0.210594
