21
gdb 103158	1.94716	1.5639	1.24724	2.772	80.26	-0.2257	0.0306	0.2563	1171.0734	0.181231	-420.403329	-420.393304	-420.39236	-420.437863	37.054	
C	-0.1426954298	 1.5135461788	-0.0177128199	-0.336029
N	 0.1877095654	 0.0881361003	 0.0367506654	-0.322838
C	 0.8126098732	-0.4648598889	-1.1590459373	 0.127214
C	 2.1956516518	 0.0983096913	-1.5014671705	-0.457809
C	 0.7069897644	-2.025601864	-1.2412346521	 0.117183
C	 0.0856821321	-2.8031764943	-0.1057065896	-0.414943
O	-0.2152275313	-1.8924216739	-2.3821607859	-0.272128
C	-0.1482866907	-0.5241024165	-2.3427890802	 0.448859
N	-0.69331694	 0.342590169	-3.0701421176	-0.557473
H	 0.7270591536	 2.1849591834	-0.1001408175	 0.097081
H	-0.790527265	 1.6967012779	-0.8774261126	 0.166004
H	-0.6891477295	 1.7792693969	 0.892022585	 0.115629
H	 0.7933264615	-0.0904204374	 0.832744595	 0.214232
H	 2.890397096	-0.0686786221	-0.6696601437	 0.109281
H	 2.6120796222	-0.3779220532	-2.3945565353	 0.124418
H	 2.139147888	 1.17254209	-1.6945095333	 0.141691
H	 1.6316507901	-2.4956860774	-1.5920618177	 0.084875
H	-0.8063229243	-2.296801484	 0.2656043364	 0.146559
H	-0.1786907067	-3.8091496131	-0.445429678	 0.128532
H	 0.7998464167	-2.9047065508	 0.7192091288	 0.114714
H	-1.2830997878	-0.0909921718	-3.7834807794	 0.224947
