18
gdb 96942	3.36376	1.188	1.07207	1.3122	74.75	-0.2546	0.0212	0.2758	1188.1238	0.147544	-439.060133	-439.051689	-439.050745	-439.093662	31.356	
C	 0.2613585855	 1.3996536834	-0.2845339091	-0.341701
N	 0.5177997056	-0.0330108906	-0.2409803549	-0.328368
C	 0.5906294764	-0.615415669	 0.8592112213	 0.471802
O	 0.4720946731	-0.1027149587	 2.1643362069	-0.302781
C	 0.8130843612	-1.4027111847	 2.7390267058	 0.062139
C	-0.4758226753	-2.1764277766	 3.1070192853	 0.143847
O	-1.5421401584	-1.4114513832	 3.5841920946	-0.430503
C	-0.528900903	-2.7526354962	 1.6479148264	-0.284437
C	 0.8193854895	-2.0315902262	 1.3165445858	-0.197425
H	 1.0324536514	 1.8800181743	-0.8957107385	 0.131188
H	-0.6977381064	 1.5765462004	-0.7840275644	 0.130859
H	 0.2388885057	 1.8812293949	 0.699952836	 0.125995
H	 1.6540430367	-1.3249315013	 3.4275441901	 0.093601
H	-0.282875539	-2.9635116209	 3.841970416	 0.096464
H	-1.4942915832	-0.560427707	 3.1285239308	 0.290768
H	-0.4670305225	-3.8416127911	 1.6061164023	 0.114565
H	-1.3810528927	-2.423648827	 1.050358848	 0.12071
H	 1.6327540055	-2.5995581006	 0.8727171677	 0.103277
