21
gdb 104003	2.49753	1.40349	1.2676	0.8239	78.45	-0.2418	0.0807	0.3225	1137.8543	0.180128	-424.187248	-424.177702	-424.176758	-424.220887	36.669	
C	-0.0093947606	 1.3526471275	 0.1322854706	-0.248586
O	-0.1136778009	-0.036221188	-0.0906879971	-0.294209
C	 0.6269526741	-0.5464780547	-1.1880102933	 0.329706
C	 0.1706181374	 0.0295410308	-2.5249703935	-0.446445
C	 2.1970265307	-0.5807051483	-1.0274020772	-0.292325
C	 2.144043755	-2.109991477	-1.0993485294	-0.104618
C	 1.2950740628	-2.6279690099	 0.0412692106	-0.345527
C	 0.6265539551	-2.08120961	-1.1857988478	 0.367858
O	-0.1901520057	-2.8483138727	-1.9992340841	-0.46357
H	 1.0378314761	 1.6823493329	 0.2031364897	 0.105248
H	-0.5046362525	 1.9459255974	-0.6492912072	 0.107666
H	-0.5031439137	 1.5587518574	 1.0856933546	 0.124008
H	 0.4087923264	 1.0943751174	-2.6042121592	 0.110581
H	 0.6646501081	-0.4905578383	-3.3495801075	 0.128257
H	-0.9089268438	-0.1000252154	-2.6439220189	 0.119925
H	 2.7184176268	-0.1071948424	-1.8624884596	 0.100514
H	 2.5788592679	-0.1728247826	-0.0863721531	 0.096489
H	 2.8413974277	-2.7466243308	-1.6284325597	 0.092072
H	 1.2475751367	-3.7099439914	 0.1139757266	 0.109797
H	 1.2517618989	-2.0952023022	 0.9869880483	 0.114155
H	-0.9881240865	-3.0632268499	-1.5036422627	 0.289003
