21
gdb 84123	2.40069	1.34759	1.07466	1.2754	80.82	-0.2408	0.0152	0.256	1235.5173	0.180933	-424.250261	-424.240526	-424.239582	-424.284567	37.178	
C	-0.0840162848	 1.4909760768	 0.0159166332	-0.490502
C	-0.000191107	-0.001284538	-0.0311607176	 0.326342
C	-0.142340383	-0.7853583405	-1.1024877537	-0.236481
C	-0.0150077102	-2.2472712071	-0.7808238707	 0.061794
O	 0.8966366183	-2.9517572044	-1.6232328713	-0.444111
C	 0.4378647292	-2.2660423577	 0.7322889485	 0.355239
C	-0.3141780264	-3.3112166403	 1.5551062279	-0.450041
O	 1.8412537352	-2.5138862944	 0.7876496256	-0.474873
C	 0.2314333338	-0.8139976719	 1.2231035855	-0.326644
H	 0.838891401	 1.9215908792	 0.4246039425	 0.130124
H	-0.2550135779	 1.9201845724	-0.9748300281	 0.124848
H	-0.8969724959	 1.820075702	 0.6758121652	 0.127831
H	-0.3400869492	-0.4391381244	-2.1119925887	 0.090957
H	-0.9641075886	-2.7826303597	-0.905627689	 0.086153
H	 1.689182628	-2.4032813	-1.6722288699	 0.278788
H	-0.1573791825	-4.3129225908	 1.1380041248	 0.114378
H	 0.0410421844	-3.3130115091	 2.5899406482	 0.120774
H	-1.3918056878	-3.1142893762	 1.556472957	 0.111537
H	 1.9881944917	-3.3057150119	 0.254260064	 0.274532
H	 1.1075316274	-0.477199867	 1.788878518	 0.117466
H	-0.6298811658	-0.736766547	 1.8999348186	 0.101889
