17
gdb 11513	4.54916	1.04339	0.94025	1.8328	69.33	-0.252	0.023	0.275	1228.3212	0.143313	-360.018665	-360.010193	-360.009249	-360.052155	30.371	
N	 0.1418825442	 1.4352335051	 0.1511327415	-0.492909
C	-0.0861815306	-0.0004186265	-0.0227611276	-0.125448
C	-1.6000418391	-0.3094319486	 0.0011517533	-0.218296
C	-2.2190139286	-0.0129708217	 1.3472014346	 0.033975
C	-3.4279532301	-0.7457923861	 1.7912287773	-0.251691
N	-2.1270476265	-0.9992243558	 2.4400931731	-0.317089
C	 0.5288886958	-0.5408768496	-1.2552767355	 0.254028
N	 1.0132577896	-0.9232931067	-2.2333287793	-0.319944
H	 1.1344026191	 1.6262615962	 0.2466691005	 0.247445
H	-0.1722572286	 1.9366691793	-0.6753811339	 0.24183
H	 0.3824378108	-0.5120834886	 0.8264140593	 0.140035
H	-2.0863362198	 0.2850336075	-0.7833453721	 0.117557
H	-1.75663767	-1.362400866	-0.260793219	 0.113638
H	-2.0794403629	 1.009456763	 1.686503773	 0.11552
H	-4.16549488	-0.2534716561	 2.4183335522	 0.123872
H	-3.8351605013	-1.5062166216	 1.1289204061	 0.112127
H	-1.7418990019	-1.8733094536	 2.0864517364	 0.225351
