18
gdb 17959	2.54351	2.54233	1.42395	1.3261	73.74	-0.239	-0.0101	0.229	895.8964	0.155747	-347.786283	-347.77917	-347.778226	-347.817296	28.048	
C	-0.0030658858	 1.5343537666	-0.0670183987	-0.124232
O	 1.2796178426	 2.1546924364	-0.0548716431	-0.243092
C	 1.8130931897	 2.5048989023	 1.2191192503	-0.124227
C	 2.6448208084	 1.4322436502	 1.8936274858	-0.050586
C	 2.1617416777	 0.3193573188	 2.4451332274	-0.036918
C	 0.6969219549	-0.0647709042	 2.4430556716	-0.311982
C	 0.2908457622	-0.6803885685	 1.1204194697	-0.03692
C	 0.0047304111	 0.0214242131	 0.0242306086	-0.050584
H	-0.6284173825	 1.9605015916	 0.7334940701	 0.095112
H	-0.4551970784	 1.8339235174	-1.0177753227	 0.106091
H	 2.4411755515	 3.3819100748	 1.0334645813	 0.106088
H	 0.9982754347	 2.8296368031	 1.8855221989	 0.095113
H	 3.7198034483	 1.5950087237	 1.9032644618	 0.089259
H	 2.8530942874	-0.3988060751	 2.880457316	 0.092079
H	 0.4914805597	-0.7627974303	 3.2599946309	 0.102435
H	 0.0883908737	 0.8297470452	 2.6273982731	 0.11103
H	 0.2928773603	-1.7668746038	 1.0677200609	 0.092078
H	-0.2285039055	-0.5148984312	-0.8923592119	 0.089257
