16
gdb 38657	3.28106	1.96984	1.6823	1.1605	66.12	-0.2471	0.01	0.2571	824.3876	0.128561	-437.871555	-437.865785	-437.86484	-437.901465	24.342	
C	 0.026820623	 1.5947096118	 0.0381973277	-0.232793
C	 1.5517396495	 1.7970703976	 0.0121999569	 0.034428
O	 1.9920148709	 0.8554175736	 1.0400916451	-0.292494
C	 1.5667911584	-0.1654692509	 0.1005248194	 0.02176
C	 2.0566484254	 0.758040007	-1.0265984422	 0.111161
O	 1.4635060363	 0.64140843	-2.3120973106	-0.242065
C	 0.314409332	-0.0939690639	-2.3474515724	 0.118098
N	-0.4072350191	-0.4483623525	-1.3721143027	-0.261815
C	 0.0340447407	 0.0321136482	-0.0593513354	-0.007174
H	-0.3901918287	 1.962319875	 0.9779240172	 0.116335
H	-0.5023426381	 2.0578030576	-0.7970701435	 0.118194
H	 1.9684900678	 2.7980588191	 0.1167153576	 0.088069
H	 1.9548934541	-1.1632397662	 0.293140304	 0.095737
H	 3.1378444549	 0.7734248246	-1.1509369332	 0.112364
H	 0.0644822149	-0.3557105671	-3.3724434514	 0.132095
H	-0.5543840921	-0.4520914539	 0.7189967234	 0.0881
