18
gdb 6975	2.51072	2.28118	1.61175	0.9999	68.71	-0.244	0.0211	0.265	875.0741	0.15247	-384.946712	-384.938247	-384.937303	-384.97906	32.192	
C	 0.3315226539	 1.4854113295	-0.1213359028	-0.433183
C	-0.0214433206	-0.0018522369	-0.0164693989	 0.343771
O	-1.4317724398	-0.1596059569	 0.1719117273	-0.477178
C	 0.4967305801	-0.798514309	-1.1992172047	-0.110318
C	 1.5385802113	-1.5638625958	-0.8821757351	-0.073052
C	 1.9137515554	-1.422327558	 0.5721394148	-0.301915
C	 0.673724845	-0.7151333886	 1.1749048324	 0.092695
O	 0.9620266906	 0.2029715439	 2.2134996272	-0.434026
H	 1.4120430509	 1.6348263902	-0.1939372593	 0.123605
H	-0.1265031333	 1.9185209722	-1.0191664849	 0.095496
H	-0.0325969908	 2.0175725759	 0.7599855538	 0.138147
H	-1.8807951569	 0.4407498242	-0.4321987483	 0.27348
H	 0.0511398254	-0.7042185155	-2.1842204377	 0.085922
H	 2.0818407816	-2.2029343044	-1.5701510304	 0.094248
H	 2.1365327584	-2.3795667596	 1.058374967	 0.096537
H	 2.7985742226	-0.7844898661	 0.7028655805	 0.112384
H	-0.0418717773	-1.4745658691	 1.517451298	 0.087697
H	 1.2133614735	-0.2982504359	 2.994399081	 0.28569
