17
gdb 28220	4.70871	1.2318	0.99523	2.188	76.44	-0.178	0.0441	0.2221	1176.8026	0.138112	-418.039209	-418.031204	-418.03026	-418.07223	29.402	
C	 0.1065079741	 1.4666940076	 0.0548638555	-0.50028
C	 0.0280563928	-0.0190361479	-0.0348085783	 0.308314
N	 0.026795574	-0.7326263877	-1.142055274	-0.373204
C	-0.0427828382	-2.0429452942	-0.7225742801	 0.166828
C	-0.0891743157	-2.1041555869	 0.6243379008	 0.429733
N	-0.0471249753	-0.8283930673	 1.10302225	-0.428726
O	-0.1937805609	-3.3072152175	 1.2230960879	-0.297343
C	-0.0951486777	-4.2455705272	 0.0870562562	-0.094109
C	-0.149921506	-3.4392537639	-1.2633700949	-0.367041
H	 1.0071041987	 1.8052924279	 0.5823290271	 0.126068
H	 0.1340154084	 1.8685600582	-0.9589645287	 0.156687
H	-0.7593613521	 1.897763056	 0.5725229164	 0.125459
H	-0.052382052	-0.5258124182	 2.0619433457	 0.2673
H	 0.8553992043	-4.774243732	 0.1992971849	 0.123191
H	-0.9144611263	-4.9579131977	 0.1974206432	 0.124179
H	-1.0855478235	-3.6258764397	-1.8050819099	 0.11557
H	 0.6711831354	-3.7394165195	-1.9230920018	 0.117377
