8
gdb 116	159.56146	2.07623	2.07623	5.1545	47.82	-0.2871	-0.0377	0.2494	553.2094	0.055566	-208.863267	-208.85788	-208.856936	-208.890804	17.054	
C	-0.0179010733	 1.4695783847	 0.0101423191	-0.509799
C	 0.0020700907	 0.0202021745	 0.0019563994	 0.104091
C	 0.0184953536	-1.1872967073	-0.0046204114	 0.009204
C	 0.0366592776	-2.5521623667	-0.0120179828	 0.217449
N	 0.052021879	-3.7138259512	-0.0182071605	-0.338454
H	 1.0000812814	 1.873134477	 0.0026237275	 0.172498
H	-0.5433915907	 1.8567784395	-0.8691452953	 0.172502
H	-0.5264973382	 1.8468877796	 0.903535774	 0.172509
