20
gdb 31226	2.35991	1.27613	0.90199	1.7519	82.24	-0.2259	0.0108	0.2368	1359.8614	0.171181	-403.201118	-403.191785	-403.190841	-403.236089	33.635	
C	-0.387971915	 1.8380344981	-0.2830864812	-0.371803
C	-0.0086219151	 0.389990821	 0.0737728243	-0.298665
C	 0.786010889	-0.2932210746	-0.9828028336	 0.262751
C	 2.0396941645	-0.8125947907	-1.0727554177	 0.169491
C	 3.1263254918	-0.8991002749	-0.0485264392	-0.294689
C	 3.496436889	-2.3484297084	 0.3054681066	-0.367446
N	 2.223940953	-1.3259289822	-2.3609410941	-0.306018
C	 1.1071541256	-1.0939428721	-2.9619232597	 0.058188
O	 0.1764205544	-0.4719006911	-2.2064968871	-0.184051
H	 0.505966331	 2.4509535023	-0.4323233125	 0.123227
H	-0.9752012174	 1.8686032341	-1.2048994271	 0.132604
H	-0.9837584681	 2.288570446	 0.5161949346	 0.115381
H	 0.5748633607	 0.3723604961	 0.9995935563	 0.118028
H	-0.9225821083	-0.1850287877	 0.272387308	 0.119749
H	 4.0163484326	-0.3865150162	-0.4343651047	 0.116936
H	 2.821559039	-0.3578250582	 0.8537087926	 0.099398
H	 2.6460241506	-2.8724913217	 0.7532212371	 0.113762
H	 3.7925386686	-2.8950543847	-0.5937107178	 0.140083
H	 4.3276899407	-2.3758610532	 1.0166005029	 0.108853
H	 0.8292405834	-1.330523512	-3.9773707079	 0.144222
