17
gdb 83215	2.72409	1.55517	1.29465	4.2134	72.21	-0.2417	0.0107	0.2524	1016.3087	0.136737	-417.98201	-417.97402	-417.973076	-418.014557	29.797	
C	-0.3357091671	 1.4700997794	-0.0330365726	-0.33884
N	 0.0377848025	 0.0587332251	 0.0296742479	-0.084462
C	 1.3591114423	-0.4319143474	-0.3148564285	-0.053347
C	 2.5362857508	 0.5239737485	-0.2739788627	-0.113928
O	 2.4747621158	 1.1922446127	 0.9902495316	-0.259346
C	 1.7642654054	 0.3754339246	 1.9122139853	-0.037383
C	 1.075395162	 1.2362319581	 2.8856724187	 0.282181
N	 0.525344042	 1.8733005872	 3.6764915282	-0.320997
C	 0.8398540754	-0.5195637079	 1.084981265	-0.068505
H	 0.4559629616	 2.1748929527	 0.245646704	 0.138666
H	-0.6586232859	 1.6872490936	-1.0555616313	 0.126395
H	-1.1899394936	 1.6286750789	 0.6303496737	 0.144034
H	 1.4094124539	-1.2838564274	-0.9877323331	 0.106103
H	 3.4760950736	-0.0387292991	-0.3763845063	 0.111721
H	 2.5127060008	 1.3003917524	-1.045533567	 0.126409
H	 2.452314773	-0.2735595729	 2.4794930034	 0.126992
H	 0.4738461476	-1.4279786884	 1.5548061537	 0.114308
