19
gdb 115944	3.16675	1.31706	1.1301	3.2312	71.13	-0.2564	0.081	0.3374	1132.3832	0.16021	-460.140352	-460.132274	-460.13133	-460.173117	31.228	
O	 0.021857058	 1.4210706309	-0.0179493883	-0.417887
C	 0.0012139661	 0.016678422	 0.0739987903	-0.075545
C	-1.4182919944	-0.5389088486	 0.0911433466	 0.192822
O	-2.0697462275	-0.1396860606	 1.2653369298	-0.244051
C	-3.3410379498	-0.7641628169	 1.3959089915	-0.110348
C	-4.1810022225	-0.5722881583	 0.1503024481	-0.070636
C	-4.3355122763	 0.8030717976	-0.4602729099	-0.307985
C	-3.4438864249	-0.2183840983	-1.1158973511	 0.101916
O	-2.0549331195	-0.0136849596	-1.0623553463	-0.281386
H	-0.6144999327	 1.6480683465	-0.7068138325	 0.289204
H	 0.5363739796	-0.4607176945	-0.762675036	 0.090847
H	 0.4995223588	-0.2645417113	 1.0060953703	 0.117083
H	-1.4067242506	-1.6436590483	 0.0347031026	 0.05894
H	-3.2062995432	-1.841784877	 1.5866924737	 0.095382
H	-3.8108338225	-0.3189859622	 2.2779610787	 0.117835
H	-5.0173681408	-1.2583316024	 0.0577110338	 0.095635
H	-5.2771437191	 1.0578221564	-0.9335763848	 0.114071
H	-3.8248144342	 1.6219109517	 0.0346394613	 0.133839
H	-3.7502586945	-0.6629743772	-2.0582335877	 0.100265
