19
gdb 1099	3.17463	2.2915	1.90776	2.5974	67.15	-0.2367	-0.0077	0.229	809.0495	0.168115	-310.952875	-310.943784	-310.94284	-310.985913	32.977	
C	-0.0040355007	 1.5089787096	-0.1330894523	-0.484571
C	 0.0318643025	 0.0046560561	 0.1004063516	 0.383087
O	 1.0804310382	-0.5516451814	 0.3362134782	-0.309463
C	-1.2964503449	-0.7796602272	 0.0395127342	 0.158294
C	-0.9938985841	-2.2821121803	-0.0593903719	-0.395991
C	-2.0651271374	-0.4942770282	 1.351743054	-0.411152
C	-2.1468651931	-0.3314430173	-1.1656293086	-0.419399
H	 0.9379618778	 1.9427439529	 0.2046151921	 0.141038
H	-0.118014169	 1.7109747855	-1.2042802124	 0.145316
H	-0.8434563641	 1.9923198244	 0.3741213485	 0.13278
H	-0.370417	-2.6119215806	 0.7737596185	 0.129697
H	-1.9263457326	-2.855939226	-0.0512263605	 0.101147
H	-0.4555949002	-2.5158840365	-0.9826391789	 0.115577
H	-2.3158512251	 0.5652680114	 1.4621433409	 0.11398
H	-3.0037096768	-1.0585017983	 1.3603647863	 0.119698
H	-1.4802006499	-0.7996311274	 2.2248742885	 0.127912
H	-1.6159187246	-0.4890167415	-2.1105904025	 0.118776
H	-3.0716931561	-0.9164829023	-1.2047871705	 0.118778
H	-2.4281903399	 0.7237860771	-1.1053042153	 0.114492
