19
gdb 121775	2.69485	0.82653	0.65831	1.1113	84.74	-0.2664	0.0093	0.2757	1720.5676	0.154519	-385.803678	-385.792973	-385.792028	-385.840283	37.855	
C	-0.1801086112	 1.4818498508	 0.068652848	-0.384052
C	 0.134904295	-0.0143566878	-0.0055479049	-0.184425
C	 0.6704881208	-0.5562411902	 1.3115241159	-0.03592
O	 0.9416873517	-1.9412487037	 1.1423146081	-0.244664
C	 1.4855170384	-2.5613592242	 2.2963783367	-0.223249
C	 0.5124975498	-2.6553530848	 3.4004990298	 0.346511
C	-0.2825797819	-2.7060130396	 4.2993627287	-0.470741
C	 1.9826524353	-3.8869265821	 1.9183119736	 0.309112
C	 2.4141604199	-4.9677734794	 1.6264707576	-0.403707
H	 0.7132749286	 2.0672293364	 0.312826372	 0.116665
H	-0.5651423411	 1.8483167741	-0.8871124483	 0.119008
H	-0.9347103709	 1.6940216349	 0.83401053	 0.118313
H	-0.7644540583	-0.5801175078	-0.2733963319	 0.112221
H	 0.8736076485	-0.2104103303	-0.7908558488	 0.10922
H	 1.5945368919	-0.0267565974	 1.6017616287	 0.085221
H	-0.0611699665	-0.4059530325	 2.1193267983	 0.102587
H	 2.3432182611	-1.9648966921	 2.6577357175	 0.12203
H	-0.9853467884	-2.7635406108	 5.0938745493	 0.20443
H	 2.7874064671	-5.9267195334	 1.3634184597	 0.20144
