21
gdb 41161	2.8507	1.73663	1.56638	0.216	87.77	-0.2209	0.0192	0.2402	975.1358	0.185732	-349.871305	-349.864504	-349.863559	-349.901836	30.035	
C	-0.0551927466	 1.5729120855	-0.2438627148	-0.302928
C	 1.5126786771	 1.4686573795	 0.0687141773	-0.325972
C	 1.121086363	 0.2626893721	 0.9985887212	 0.309207
C	 1.1784544618	-1.3064454838	 1.1327945496	-0.322167
C	-0.4204255646	-1.218229608	 0.9562311707	-0.148591
C	-1.0480149842	-0.8471821773	 2.2729606125	-0.044537
C	-0.4773461908	 0.1266601306	 2.9782311432	-0.066752
C	 0.7355175453	 0.8120443529	 2.4016655794	-0.281884
C	-0.0491604732	 0.0431472522	 0.0790301245	 0.074498
H	-0.5720119278	 2.1977885855	 0.4864277024	 0.11466
H	-0.3498180715	 1.8776146138	-1.2511282754	 0.094448
H	 2.0618824969	 1.1696217613	-0.8279435915	 0.103668
H	 2.0031639854	 2.3349093644	 0.5233179804	 0.092419
H	 1.6526646114	-1.8009693856	 0.2819039462	 0.099609
H	 1.5373062451	-1.7372647404	 2.0725295841	 0.093188
H	-0.9185058237	-2.0535697309	 0.460741514	 0.061284
H	-1.9384254841	-1.3683341794	 2.6102142339	 0.085236
H	-0.8681428649	 0.4639243836	 3.9340873648	 0.08434
H	 1.6056944797	 0.6790955805	 3.0623004971	 0.104049
H	 0.5644977819	 1.895215906	 2.3758564116	 0.099698
H	 0.3645283135	-0.4016953924	-0.8360503513	 0.076524
