19
gdb 116432	2.43225	1.4003	0.93986	3.9213	71.78	-0.2382	-0.0279	0.2103	1237.8988	0.159614	-460.181802	-460.173124	-460.17218	-460.215506	32.459	
O	-0.0144247674	 1.4176749803	-0.0676474999	-0.427882
C	 0.0523419666	 0.0081529066	-0.004018499	-0.067781
C	-1.3447622868	-0.6007986394	 0.0166315394	-0.017316
O	-1.9954504103	-0.1582217063	-1.1756489358	-0.274064
C	-3.3306278386	-0.6214923899	-1.3024586091	-0.071093
C	-3.3595079389	-2.1419737241	-1.4374898138	-0.212478
C	-2.671226776	-2.7954691198	-0.2253741393	-0.308536
C	-1.3435939671	-2.1315337116	 0.1105999894	 0.385525
O	-0.3668502387	-2.7492064267	 0.4639910051	-0.304052
H	-0.601087174	 1.6226459091	-0.8051197698	 0.289111
H	 0.6122493249	-0.4168280871	-0.8503883944	 0.099966
H	 0.5818781429	-0.2602189412	 0.9122075218	 0.12676
H	-1.8947382659	-0.2111397837	 0.8940403484	 0.091596
H	-3.9285522327	-0.2977854861	-0.4334747711	 0.092918
H	-3.7381302601	-0.1350680449	-2.1930092977	 0.115176
H	-4.3919116467	-2.4964865415	-1.530133402	 0.107095
H	-2.8338257661	-2.4209472495	-2.3574943029	 0.120518
H	-3.3109469591	-2.6704487929	 0.6611773306	 0.126556
H	-2.5046754262	-3.8671787312	-0.3571779098	 0.12798
