23
gdb 88994	3.80935	0.86142	0.80765	0.8953	86.92	-0.2345	0.0828	0.3174	1555.2236	0.205132	-388.260714	-388.251192	-388.250248	-388.295995	35.755	
C	 0.0468670477	 1.3857950602	-0.2568276222	-0.395547
C	 0.0861272341	-0.1105616681	-0.0378839409	-0.033345
C	 1.4068003543	-0.8146861523	 0.2187164155	-0.321879
C	 0.3774396598	-0.680399662	 1.317966203	 0.118536
O	 0.5798002656	 0.2235414193	 2.3603968871	-0.255198
C	 1.3262112013	-0.2906730667	 3.4368502124	 0.181747
C	 2.8804194808	-0.273502623	 3.3832014819	-0.240202
C	 2.8624378272	 0.1818724978	 4.8688702521	-0.219507
C	 1.3873720094	 0.630016387	 4.67029012	-0.251088
H	 0.7465922832	 1.8952069658	 0.4094055127	 0.12622
H	 0.3075400799	 1.6369245515	-1.2905752672	 0.111262
H	-0.951957724	 1.7874660066	-0.0545898188	 0.116612
H	-0.6385928059	-0.6712642476	-0.6227938408	 0.083191
H	 1.5849071138	-1.791130664	-0.21929796	 0.106235
H	 2.286291044	-0.184714949	 0.2964137752	 0.115529
H	-0.1574275015	-1.582232637	 1.6212409441	 0.080604
H	 0.9598804163	-1.2935529488	 3.7040355022	 0.063762
H	 3.4042575335	-1.1964178514	 3.1250446918	 0.094722
H	 3.2218550054	 0.5314274093	 2.7260488912	 0.104961
H	 2.9438870166	-0.6640267433	 5.5569511667	 0.103394
H	 3.5831805605	 0.9438399115	 5.1708050269	 0.101149
H	 1.3269194149	 1.6740344257	 4.3499287896	 0.112118
H	 0.6700543129	 0.4608721882	 5.4762412274	 0.096722
