16
gdb 13611	4.52286	1.26436	1.17043	2.7463	62.72	-0.2716	-0.0062	0.2654	1072.7771	0.128309	-420.888176	-420.879542	-420.878598	-420.921907	29.72	
C	-0.1729072202	 1.6085131899	 0.5443376052	-0.24169
O	-0.157892719	 0.1772780421	 0.6284575781	-0.233774
C	-0.9174224705	-0.4598554824	-0.2850434567	 0.443043
O	-1.5857839011	 0.0975100413	-1.1175533083	-0.360964
C	-0.7785473227	-1.9429699255	-0.1002232033	-0.078228
O	-1.8436839954	-2.7475833518	-0.5915251247	-0.233251
C	-0.5905892787	-2.8558904563	-1.2563267877	 0.090119
C	-0.5153550213	-2.4105036243	-2.6921471991	-0.435828
H	 0.4889391914	 1.9592526781	 1.3358970669	 0.136103
H	 0.1870806545	 1.9403796627	-0.4327650302	 0.142358
H	-1.185826683	 1.9905713091	 0.6932226082	 0.145989
H	-0.3724058083	-2.23620978	 0.8658420106	 0.109655
H	-0.0552216749	-3.7797496708	-1.0253455687	 0.098715
H	-1.0411998376	-1.4663992776	-2.83492696	 0.166439
H	 0.5303667916	-2.2956873215	-2.9970085602	 0.120477
H	-0.9692175946	-3.1705765829	-3.33652524	 0.13084
