17
gdb 96736	1.98342	1.2717	0.78231	3.5463	79.92	-0.2521	-0.0272	0.2249	1406.6756	0.132882	-417.995604	-417.98553	-417.984586	-418.031594	34.991	
C	-0.0437902811	 1.5127423213	-0.0289154961	-0.348541
N	 0.0465051552	 0.0664414381	 0.0451735771	-0.246074
C	-1.0042354479	-0.6365990417	 0.1439069302	 0.40672
C	-0.9269911699	-2.1517068071	 0.2227183237	-0.491066
C	 0.429711376	-2.676316721	 0.1736482304	 0.35319
C	 1.5207788417	-3.1755343602	 0.1384165224	-0.428888
N	-2.2997516213	-0.0729733164	 0.1872760319	-0.362365
C	-3.5352904759	-0.6749231844	 0.2900716233	 0.159984
O	-3.760463138	-1.8581658483	 0.3672371693	-0.28898
H	 0.9623003327	 1.930034853	-0.1086471193	 0.139356
H	-0.6103808631	 1.8561312489	-0.9089581911	 0.117783
H	-0.5100366733	 1.9535214497	 0.8665020506	 0.117719
H	-1.4344363847	-2.4830450577	 1.1361566367	 0.165025
H	-1.5333756382	-2.5777518793	-0.5849747982	 0.165092
H	 2.4944611293	-3.5970826663	 0.1056507255	 0.191911
H	-2.3255550888	 0.9345303441	 0.1336295824	 0.254555
H	-4.3367055129	 0.0898949273	 0.2939200313	 0.094581
