19
gdb 111705	2.74364	1.17629	0.94772	0.9786	84.09	-0.232	0.031	0.263	1302.2635	0.157461	-385.815963	-385.806891	-385.805947	-385.849908	34.111	
C	 0.0337042827	 1.47733699	-0.2458104505	-0.376403
C	 0.0316501704	 0.0073147549	 0.192312837	-0.21423
C	-1.3571253666	-0.5941078405	 0.1477122905	-0.0787
C	-1.9418289841	-1.25616917	-1.0552276836	 0.040158
O	-0.9529160304	-1.9448589296	-1.8151240099	-0.280623
C	-0.6969587221	-2.8506224597	-0.7116523842	-0.140402
C	-1.668473796	-2.0951076665	 0.2031683317	 0.075586
C	-2.533319647	-2.6898912236	 1.157983042	 0.174582
C	-3.252967324	-3.2075853748	 1.972978967	-0.406127
H	 1.0426038039	 1.8984303051	-0.2017780959	 0.114597
H	-0.3291108557	 1.5797746337	-1.2735447754	 0.124721
H	-0.6104501744	 2.0861967555	 0.3981389503	 0.114226
H	 0.6972530651	-0.5639982283	-0.4612498921	 0.116978
H	 0.4306140348	-0.0787840935	 1.2102693787	 0.102614
H	-2.1094471394	-0.0420849259	 0.7091886239	 0.099729
H	-2.8690495518	-0.9922638982	-1.5516094408	 0.114808
H	-1.0515115976	-3.857368224	-0.9530888209	 0.122125
H	 0.3596399364	-2.8808844004	-0.4240828803	 0.110662
H	-3.8907657144	-3.6611530442	 2.6903185427	 0.185699
