20
gdb 87256	4.68186	0.7457	0.71348	4.4171	78.2	-0.255	0.0051	0.2601	1621.1889	0.168384	-440.286981	-440.276747	-440.275802	-440.323414	35.942	
C	 0.109500788	 1.3575375448	-0.2834518693	-0.401362
C	 0.1889030924	-0.1155500688	 0.0384467531	-0.041772
N	 1.5242363435	-0.7192830237	 0.1613710504	-0.359586
C	 0.648682199	-0.6765284094	 1.3464683057	 0.327855
C	 1.1290484026	 0.1909925217	 2.4911907395	-0.466591
C	-0.0197293797	-1.9652990832	 1.7711546347	-0.159376
O	 0.9228288178	-2.828397975	 2.4285321712	-0.179421
C	 0.6391869088	-3.2626405033	 3.6710174391	 0.176929
O	 1.3551439808	-3.9985624434	 4.2791024592	-0.272454
H	 0.9015602745	 1.9208304281	 0.2131794598	 0.131131
H	 0.218325281	 1.5132666467	-1.361930398	 0.126339
H	-0.8579198296	 1.7721373294	 0.0200022612	 0.117312
H	-0.5680991151	-0.7117417503	-0.4734176275	 0.07802
H	 1.5517771417	-1.6528838544	-0.2413901686	 0.233301
H	 1.6598739796	 1.0687317461	 2.1220425429	 0.136202
H	 0.2909095793	 0.5253520356	 3.1135680362	 0.111739
H	 1.8225155057	-0.3707349795	 3.1247229633	 0.139524
H	-0.8635657262	-1.7626040705	 2.4451237855	 0.112941
H	-0.4003665936	-2.5101060515	 0.9004665191	 0.112663
H	-0.3205285302	-2.8627886794	 4.0552365023	 0.076609
