16
gdb 23523	1.9247	1.78312	1.08868	0.8133	68.52	-0.2552	0.0095	0.2647	1098.005	0.122794	-474.908184	-474.899868	-474.898924	-474.940909	32.133	
O	-0.1499281635	 1.3451528037	-0.0145138946	-0.399871
N	 0.0075056781	-0.0622747715	 0.0092042456	-0.32156
C	-1.1123744758	-0.6447397147	 0.0127768347	 0.415456
C	-2.6216122452	-0.4149095539	 0.0010985639	-0.241857
C	-2.6376375622	-1.5905595627	-1.044904989	 0.183796
O	-2.2342650042	-1.3756188301	-2.3581098314	-0.445077
C	-1.6061805968	-2.0823473663	 0.0335603173	-0.228503
C	-2.6488370667	-1.5559266192	 1.0845554428	 0.183796
O	-2.2592614399	-1.2983249091	 2.3942450861	-0.445077
H	 0.7652610239	 1.646097877	-0.0145902985	 0.308112
H	-3.1722120781	 0.5214723169	-0.0170253669	 0.104964
H	-3.5705632794	-2.1567695459	-1.0843083267	 0.099908
H	-1.3976602702	-0.8934742197	-2.3542062387	 0.293678
H	-1.0274763618	-3.0028538288	 0.0515745965	 0.098651
H	-3.5822235326	-2.1207134531	 1.1325362526	 0.099908
H	-1.4225661256	-0.8164420727	 2.3834632562	 0.293678
