21
gdb 65121	3.31985	1.15858	0.9444	1.3662	86.1	-0.2167	0.0292	0.2459	1301.5261	0.183094	-387.092511	-387.083838	-387.082894	-387.125783	34.061	
O	-0.3573553764	 1.2653336596	-0.4075336736	-0.457173
C	-0.0519184895	-0.0673338354	-0.0873647706	 0.305601
C	-0.4292144526	-0.5261668875	 1.3135684761	-0.328323
C	-1.2821520278	-0.9115845099	 0.1306530235	-0.295639
C	 1.1430874292	-0.6214361971	-0.7615723196	 0.31134
C	 1.8646585155	 0.0000427129	-1.7007298119	-0.212674
C	 3.0574264054	-0.8096916574	-2.1469823526	-0.244569
C	 2.7571438568	-2.213502057	-1.564128974	-0.209256
C	 1.75184702	-1.9682823041	-0.4129660768	-0.318096
H	 0.3843921285	 1.8061186112	-0.1119910964	 0.278433
H	 0.169032986	-1.2911709426	 1.7950790059	 0.114684
H	-0.812602079	 0.2437580451	 1.973265947	 0.11636
H	-2.2265973024	-0.3959135512	 0.0026151665	 0.128188
H	-1.2708736633	-1.9405293858	-0.2093493593	 0.117319
H	 1.6386755119	 0.9844340906	-2.0928242043	 0.086656
H	 3.1809815052	-0.8266621839	-3.235905869	 0.10073
H	 3.9904530507	-0.3904894155	-1.741777183	 0.100152
H	 2.2802714623	-2.8287295696	-2.3337404383	 0.105534
H	 3.6549854083	-2.7436911692	-1.2362004643	 0.094516
H	 2.2568549232	-1.9164327848	 0.5622445354	 0.104714
H	 1.010836408	-2.7716571383	-0.3303807206	 0.101504
