17
gdb 77174	2.97322	1.20303	0.98063	2.5025	68.6	-0.2483	-0.0054	0.2429	1212.7345	0.137015	-455.129049	-455.120568	-455.119624	-455.162736	30.873	
N	 0.279726416	 1.2011012552	 0.3966259351	-0.513597
C	 0.0437938737	-0.1295580288	-0.1043406498	-0.178081
C	-1.4226545639	-0.6246087396	-0.2063582889	 0.101692
O	-1.2041446985	-0.9810521961	-1.615845867	-0.266759
C	 0.067298828	-0.441612918	-1.6166079667	 0.417963
O	 0.7878187173	-0.2927169087	-2.5491463215	-0.31691
C	-1.8542169588	-1.7969510392	 0.6284253465	-0.015367
C	-2.7465857196	-2.840587096	 0.0723816679	-0.240735
N	-1.3293189708	-3.1418623571	 0.3600816702	-0.323019
H	 1.2744403787	 1.3813819897	 0.4784432451	 0.249999
H	-0.0963746565	 1.903084877	-0.2336107038	 0.24177
H	 0.6677719014	-0.8408491151	 0.444954007	 0.133658
H	-2.1432516628	 0.1976769199	-0.1423709832	 0.104736
H	-1.9297028196	-1.5515182719	 1.6865960995	 0.109163
H	-3.4641176816	-3.3393847895	 0.7169324995	 0.124033
H	-3.0446976473	-2.7446793883	-0.9675720346	 0.131624
H	-0.8194031958	-3.1301776036	-0.5215839853	 0.23983
