15
gdb 54443	3.47487	1.29261	1.06058	2.1706	68.4	-0.2598	-0.0104	0.2494	1100.1414	0.112361	-453.951402	-453.943318	-453.942374	-453.984283	30.302	
N	 0.0136150782	 0.8101166588	-0.9142740051	-0.540226
C	-0.0580128027	 0.0158422606	 0.1835476634	 0.317334
O	 0.7821516991	-0.0428927694	 1.0612667014	-0.370955
C	-1.2889038995	-0.8228358578	 0.2393722943	 0.357864
C	-1.8857514395	-1.4464671403	 1.4485869521	-0.325544
C	-1.4223388472	-2.3401057132	 0.3048621464	-0.23346
C	-2.3448944881	-2.1579496535	-0.8544367374	 0.439898
N	-2.9410343937	-2.9186888102	-1.6472083643	-0.545506
O	-2.2826128317	-0.7537224169	-0.823355487	-0.320963
H	 0.8250327574	 1.3916086223	-1.0405015261	 0.269066
H	-0.7064160534	 0.7842521381	-1.6159912268	 0.276379
H	-1.2313227933	-1.4649637447	 2.3131119166	 0.161899
H	-2.9438763267	-1.3075915883	 1.6433505279	 0.136716
H	-0.6618682288	-3.0983295801	 0.4149455677	 0.142868
H	-3.4634164702	-2.3949001754	-2.3510098931	 0.234629
