20
gdb 87222	4.26239	0.88371	0.84664	3.4545	76.13	-0.2347	0.0712	0.3059	1421.6398	0.169094	-440.224732	-440.215313	-440.214369	-440.259212	35.525	
O	 0.1913612369	 1.2149114187	 0.4772282833	-0.438716
C	 0.0728288351	-0.115215626	 0.0846704881	 0.086856
C	-0.4937978586	-1.1579965416	 1.0346102766	-0.379754
C	-1.2952173926	-0.6686122058	-0.1631592985	 0.382458
O	-2.3032336394	 0.2720366737	 0.0954198832	-0.485904
C	-1.6287088661	-1.5711253125	-1.3263986897	-0.227391
N	-2.9225565053	-2.2044376265	-1.0634640507	-0.083774
C	-3.3000730786	-3.3229749993	-1.9185007753	-0.2226
C	-2.9028918392	-3.5528144252	-0.5020070237	-0.214936
H	-0.7057440607	 1.5728821489	 0.5082214036	 0.300441
H	 0.8844564288	-0.4190150497	-0.571875732	 0.09484
H	-0.0711105126	-2.1576752579	 1.0224339107	 0.102228
H	-0.8188411704	-0.7975251174	 2.004231201	 0.118068
H	-3.1363761268	-0.2169352506	 0.0521831643	 0.292757
H	-1.735323288	-0.967665863	-2.2360580189	 0.114188
H	-0.8214495496	-2.3030502162	-1.4961856849	 0.085876
H	-4.3444773992	-3.3625183538	-2.2140658378	 0.121982
H	-2.595679064	-3.6302739819	-2.6894506327	 0.115102
H	-1.9332745127	-4.0131842842	-0.323158498	 0.116377
H	-3.653276327	-3.7640768598	 0.2538724915	 0.121901
