19
gdb 113812	2.88196	1.02061	0.92085	3.0288	71.63	-0.2621	0.0705	0.3326	1345.5395	0.156866	-460.11116	-460.101606	-460.100662	-460.146631	34.247	
C	 1.084302833	 1.0426270043	-0.1666906012	-0.423739
C	 0.0191256394	 0.0510320944	 0.2255582208	 0.080786
O	 0.451192188	-1.2562001591	 0.6236693805	-0.247147
C	-0.1862279526	-0.4314611028	 1.6021785068	 0.005892
C	 0.5992492163	 0.0884347117	 2.7686154518	 0.010786
O	 0.6702646383	-0.7469591615	 3.9293756402	-0.270829
C	 1.8932401862	-0.4333928408	 3.2426323648	 0.041789
C	 2.6396275516	-1.6098763382	 2.6609613848	-0.096714
O	 3.3744617224	-2.2730214068	 3.6798723195	-0.419574
H	 1.9138690441	 1.0431677189	 0.5436814806	 0.132506
H	 1.4809342579	 0.7999965699	-1.1577206969	 0.134799
H	 0.6636747791	 2.0529579035	-0.2135123502	 0.126454
H	-0.8522491955	 0.033067527	-0.4315581664	 0.094816
H	-1.187536433	-0.7677355719	 1.8783913819	 0.108496
H	 0.3713073849	 1.1307264742	 3.0067937896	 0.099112
H	 2.5339691878	 0.2582596095	 3.7939520328	 0.097899
H	 1.9479793719	-2.2817251949	 2.1439872395	 0.122081
H	 3.3770541548	-1.2600239	 1.9308248788	 0.111551
H	 2.7321569153	-2.6202119673	 4.3084763823	 0.291036
