16
gdb 50742	2.49988	1.52669	1.00692	4.0694	66.31	-0.2482	-0.0352	0.213	1126.682	0.124569	-475.052284	-475.044254	-475.04331	-475.085434	29.245	
O	-0.5323775641	 0.8107091207	-0.8661020958	-0.250778
C	 0.0301111497	 1.1148320596	 0.1523839067	 0.154769
C	 1.2870385929	 1.9813991586	 0.1510426417	-0.216621
N	 1.3948059388	 2.7461879154	-1.0672020029	-0.304534
C	 2.5599024245	 3.6086546891	-1.0353171272	-0.187188
C	 2.2998254442	 4.6446869982	 0.0453431618	-0.043386
O	 1.946729026	 4.0554521929	 1.3154661412	-0.234031
C	 1.3724194392	 2.8430778157	 1.4126756465	 0.444888
O	 1.0070161206	 2.4309093355	 2.4809243091	-0.327475
H	-0.287622423	 0.7637674079	 1.1513726468	 0.126836
H	 2.1165770523	 1.2494984974	 0.296010428	 0.12035
H	 1.3375048636	 2.1408317184	-1.8764600357	 0.242814
H	 3.504722584	 3.0715247192	-0.8289490954	 0.095368
H	 2.6704222594	 4.1227008247	-1.9947773335	 0.121922
H	 3.1821662545	 5.2573168748	 0.2458615782	 0.125216
H	 1.4719531976	 5.2940313019	-0.2566181093	 0.131848
