23
gdb 120774	3.3786	0.72079	0.64173	1.3225	87.37	-0.2449	0.0804	0.3252	1810.3994	0.205095	-388.256587	-388.246496	-388.245552	-388.292792	37.098	
O	 0.0726622186	 1.4096762525	 0.0872290233	-0.423169
C	 0.043383825	-0.0034251934	 0.2275152435	-0.067669
C	-1.310513226	-0.4963848147	-0.2722162176	-0.19451
C	-1.4458933072	-2.0009234107	-0.1730388584	-0.010739
C	-1.9147668797	-2.6605720732	 1.1058417356	-0.309906
C	-2.7882823887	-2.6999574549	-0.1265778091	-0.020687
C	-4.0909765509	-1.9648022597	-0.1825290771	 0.029457
C	-4.919800276	-1.9830590162	-1.44466592	-0.268193
C	-5.3886217704	-2.7356959304	-0.2237464101	-0.277024
H	 0.9224627243	 1.7257799765	 0.4070243273	 0.284093
H	 0.8497273111	-0.478525912	-0.3557260613	 0.08066
H	 0.1816475605	-0.305599022	 1.2779267658	 0.087261
H	-2.0904319073	 0.0052062241	 0.3101754369	 0.103337
H	-1.4374406804	-0.1670188114	-1.3109551648	 0.106323
H	-0.6743056559	-2.5421701642	-0.7173942852	 0.07689
H	-1.4332458774	-3.5728157248	 1.4413083262	 0.10552
H	-2.2311483195	-2.0054721838	 1.9128012399	 0.107767
H	-2.8197127914	-3.6557709366	-0.6458741135	 0.074348
H	-4.1186128754	-1.0392162097	 0.3844393409	 0.080234
H	-5.4481221863	-1.0802868037	-1.7309372822	 0.109907
H	-4.5458898822	-2.5617766933	-2.2831645576	 0.10869
H	-5.3302679514	-3.8193042788	-0.2423939493	 0.108864
H	-6.2382955734	-2.3484838494	 0.327871807	 0.108545
