19
gdb 82116	3.32035	1.18554	1.00619	4.4159	79.43	-0.2267	0.0284	0.255	1208.6262	0.159184	-382.033411	-382.024802	-382.023858	-382.066855	32.513	
C	-0.3597652924	 1.5933046638	 0.2117362634	-0.426581
C	-0.0831171998	 0.098406476	 0.1364557998	 0.048374
C	 0.3013896002	-0.5230287524	-1.2136973899	-0.087408
C	 1.6377105329	-0.0034892227	-1.684192961	-0.30406
C	 1.5842338444	-1.0146821201	-0.567727164	-0.006827
N	 1.1982074836	-0.4504703273	 0.7201844474	-0.099755
C	 2.1580005809	 0.3988996235	 1.4042135222	-0.292725
C	 1.6950879301	 0.756429062	 2.7515450499	 0.281487
N	 1.325209277	 1.0555667265	 3.8042937162	-0.312996
H	 0.4041242485	 2.190899442	-0.2935775083	 0.117077
H	-1.3183264738	 1.8046380493	-0.2731682341	 0.127077
H	-0.4320831532	 1.9313616039	 1.2501203146	 0.146846
H	-0.9185840989	-0.4414412008	 0.5954905174	 0.09691
H	-0.3744042346	-1.06463271	-1.8614956456	 0.098587
H	 1.9652154372	-0.3983601626	-2.6409277388	 0.119444
H	 1.940334429	 1.0239364465	-1.5046592271	 0.109097
H	 2.068987627	-1.9837628801	-0.6182171247	 0.100303
H	 3.0908165896	-0.1687063971	 1.5050084231	 0.155196
H	 2.4177080023	 1.3341898997	 0.8791334595	 0.129954
