16
gdb 56091	7.56706	0.47392	0.45216	5.7496	78.54	-0.2612	-0.0585	0.2026	2247.3347	0.121236	-437.901318	-437.890757	-437.889812	-437.940353	34.277	
N	-0.0238116893	 1.3406147886	-0.1214799289	-0.528711
C	 0.0536493639	 0.0088240235	 0.1555379627	 0.421265
O	 1.0874404206	-0.5318256335	 0.4976290134	-0.352072
C	-1.2665886974	-0.7515880579	 0.0195227444	-0.311308
C	-1.0198277453	-2.267097241	-0.0664321496	-0.361727
C	-2.2468886397	-3.0448034817	-0.0288656231	 0.052915
C	-3.2702903482	-3.6869247926	 0.0010305886	 0.079083
C	-4.5023054673	-4.4278130041	 0.05876126	 0.015546
O	-4.6774075653	-5.5151712539	-0.4425460851	-0.229171
H	 0.8003542665	 1.9046997878	 0.006111921	 0.265529
H	-0.8836485823	 1.7900545417	-0.382080823	 0.261407
H	-1.8842154219	-0.5258672667	 0.89713889	 0.143226
H	-1.8260275512	-0.3994210921	-0.8536742097	 0.124655
H	-0.4580507223	-2.5024744508	-0.9777075794	 0.153177
H	-0.3659083426	-2.5602137646	 0.7625526704	 0.171891
H	-5.3131100383	-3.9139628327	 0.6155345884	 0.094294
