18
gdb 17463	4.33549	1.93329	1.65362	1.842	70.21	-0.2508	0.0834	0.3341	841.4771	0.154836	-347.79101	-347.784176	-347.783232	-347.82149	27.752	
C	-0.0090187352	 1.5342578447	 0.0135637353	-0.479916
C	-0.0554863201	 0.0344878081	 0.1270221441	 0.410089
C	-1.3244010943	-0.7292379974	-0.2615975079	-0.296958
C	-1.2880221309	-2.0532945006	 0.5076665997	-0.043436
C	-0.1764966109	-3.0394840705	 0.2626120314	-0.282164
C	-0.0601703297	-2.0579235652	 1.4046379276	-0.057095
C	 0.6872486377	-0.7778221605	 1.1107430495	-0.034869
O	 1.1532668465	-0.6564881477	-0.2444934704	-0.294108
H	 0.9581571356	 1.912894683	 0.3536099167	 0.128958
H	-0.1489668064	 1.8506836087	-1.0262802522	 0.126534
H	-0.7997398397	 1.9971978947	 0.6134394587	 0.119715
H	-2.20064734	-0.1464434544	 0.0450737429	 0.101038
H	-1.3884165555	-0.8624803274	-1.3475149486	 0.111515
H	-2.2318143734	-2.4459470769	 0.869720876	 0.083636
H	-0.3752626715	-4.0747653544	 0.5186722625	 0.104226
H	 0.4786808822	-2.8902286044	-0.5865238347	 0.133951
H	-0.0900474962	-2.4066268739	 2.4299517448	 0.081467
H	 1.342139092	-0.3452013562	 1.8631756547	 0.087418
