19
gdb 41146	2.93736	1.96529	1.49187	1.5223	79.56	-0.2245	0.0047	0.2292	930.7536	0.161922	-385.855181	-385.84858	-385.847636	-385.885624	28.478	
C	-0.0068845872	 1.5716025668	-0.0716861502	-0.260614
C	 1.5573055721	 1.4914665555	 0.0441561406	-0.332036
C	 1.3529657695	 0.1464609379	 0.7476159496	 0.432658
C	 2.0472919605	-1.1927765463	 1.0299071799	-0.339664
C	 1.0625402541	-1.1431867554	 2.2414478727	 0.034317
O	 1.1307662585	 0.3158970201	 2.1766205614	-0.317152
C	-0.3658306995	-1.5245340691	 1.8803687561	-0.064065
C	-0.9347026907	-0.8715619023	 0.8608227636	-0.105471
C	-0.0238548417	 0.0132422996	 0.0587673919	-0.03329
H	-0.4393410345	 2.0563445231	 0.8049014916	 0.124792
H	-0.4265866593	 2.0066865808	-0.9803738479	 0.095376
H	 2.0288381871	 1.3789789936	-0.9361709217	 0.106942
H	 2.0770332137	 2.2607208383	 0.6183247965	 0.110921
H	 1.9434562749	-1.9948353881	 0.2957753173	 0.097531
H	 3.082917574	-1.0881344966	 1.3605242918	 0.106799
H	 1.3935713335	-1.5329931177	 3.2057310496	 0.075393
H	-0.898415284	-2.2505456694	 2.4858719357	 0.092149
H	-1.9710200543	-1.0251052889	 0.5729032653	 0.09289
H	 0.1085897832	-0.4072057816	-0.9478880838	 0.082527
