19
gdb 90371	2.29149	1.60233	1.3094	4.279	77.65	-0.2314	0.0205	0.2519	1081.155	0.158498	-419.183723	-419.17499	-419.174046	-419.21673	33.49	
C	 0.4622247202	 1.4705039057	-0.0958157206	-0.416766
C	 0.1276012266	 0.0076632335	 0.0998006008	 0.122796
O	 0.8766219446	-0.8734073386	-0.7788341138	-0.309771
C	 1.3351566924	-1.6866667113	 0.3205804818	-0.030575
C	 2.6589345317	-1.161262413	 0.8764338252	 0.39672
N	 3.862384127	-1.3611721529	 0.5507216121	-0.555178
N	 1.9764826739	-0.3887375418	 1.8271608106	-0.37722
C	 0.63099232	-0.7584387011	 1.3597366518	 0.280079
C	-0.3544697043	-1.1533745195	 2.4321172899	-0.482389
H	 1.5230512138	 1.6615642449	 0.0876866527	 0.119593
H	 0.2397869381	 1.7691261984	-1.1246373028	 0.137912
H	-0.1361429771	 2.0969547091	 0.5753140552	 0.116147
H	-0.9488314513	-0.1600787397	-0.0492673607	 0.076242
H	 1.1745761043	-2.7554262001	 0.1775088858	 0.097257
H	 4.505054731	-0.7770168042	 1.0899438677	 0.207969
H	 2.2663966616	 0.5070176946	 2.197482953	 0.234495
H	-0.6687288928	-0.2784575877	 3.0143126851	 0.122031
H	-1.2518784185	-1.5990929683	 1.9927722678	 0.128286
H	 0.092487399	-1.8726534879	 3.1238159183	 0.132373
