23
gdb 100463	3.54195	0.59307	0.5591	1.8133	92.49	-0.2471	0.0404	0.2876	2124.2898	0.202511	-388.273343	-388.261561	-388.260617	-388.312461	41.488	
C	 0.0824726377	 1.5467028494	 0.0465305076	-0.394127
C	-0.0017664161	 0.0191969705	-0.0134738874	-0.155967
C	-1.4485936112	-0.5348053137	-0.0369181828	-0.14674
C	-2.231629328	-0.11373673	-1.2975125472	-0.383514
C	-1.439960263	-1.9919258105	 0.1019886032	 0.023456
C	-1.4085206306	-3.1923899319	 0.2115814615	 0.091894
C	-1.3944695326	-4.6565492478	 0.2990760854	-0.016476
C	-2.8162665776	-5.2345347405	 0.3511907294	-0.381034
O	-0.6330962483	-5.2429336043	-0.7570141762	-0.415609
H	 1.1236356172	 1.8710519074	 0.137116443	 0.115947
H	-0.3297154686	 2.0192563258	-0.8500078645	 0.119879
H	-0.4629992241	 1.94030192	 0.9119774639	 0.114564
H	 0.5294741546	-0.3543059715	-0.8974094025	 0.104271
H	 0.5110787913	-0.4085831902	 0.8545608474	 0.108168
H	-1.9730091111	-0.1203235815	 0.8370175458	 0.101644
H	-1.7276807632	-0.4727426935	-2.2007014648	 0.120601
H	-3.2403431061	-0.5346496411	-1.2839206223	 0.122739
H	-2.3182066818	 0.9742155387	-1.361183903	 0.116975
H	-0.8631082031	-4.9541689131	 1.2115741542	 0.114196
H	-3.375533452	-4.9542573923	-0.5473620724	 0.114054
H	-2.7647741898	-6.3250801303	 0.4081365721	 0.1227
H	-3.3595775826	-4.8548691023	 1.2215199737	 0.122337
H	-0.9545549011	-4.8643153974	-1.5827485339	 0.280042
