15
gdb 125017	2.3986	1.87775	1.06113	7.5358	74.48	-0.2132	-0.0459	0.1673	1060.5704	0.113469	-450.131188	-450.12298	-450.122036	-450.164066	30.463	
C	 0.0757769666	 1.5631925677	 0.0185138606	-0.513954
C	-0.0269114374	 0.067912889	-0.003281564	 0.3377
C	-1.1870767633	-0.6482473177	 0.0467218375	 0.108269
N	-2.4506695622	-0.1298305788	 0.1631297517	-0.587237
C	-1.1046639154	-2.1122280882	 0.0298673387	 0.408051
O	-2.1180317619	-2.7957723671	 0.0790408198	-0.384811
N	 0.169321467	-2.7005501253	-0.0556603393	-0.282363
N	 1.2339745571	-1.9932429364	-0.1085752696	-0.051639
N	 1.133459545	-0.6641920204	-0.080829438	-0.284874
H	 1.0637573518	 1.891658884	 0.3555807621	 0.137311
H	-0.0999674228	 2.0026355769	-0.9711928597	 0.151044
H	-0.665428239	 1.9809819656	 0.7066095909	 0.157497
H	-2.6538542833	 0.7600318336	-0.2623886282	 0.253039
H	-3.1541674351	-0.8487603291	 0.0369491969	 0.274422
H	 2.0291878427	-0.2016495538	-0.1240585992	 0.277545
