17
gdb 34996	2.74092	1.64021	1.411	3.7394	74.91	-0.2347	0.0156	0.2503	967.4473	0.138704	-380.841211	-380.834153	-380.833208	-380.872684	27.994	
N	-0.3697802591	-1.1788810264	-0.1447507261	-0.350781
C	-0.1624092751	-0.0422298686	-0.0740495235	 0.301937
C	 0.0196689116	 1.3795920593	 0.0064657921	-0.190798
C	 0.4832773748	 2.1037024421	 1.2631717453	-0.067598
C	 1.2849698644	 1.3540976307	 2.3342128434	-0.198881
N	 2.6648954464	 1.1368040739	 1.8312163699	-0.094702
C	 2.8104032969	 0.0922289578	 0.8076483419	-0.2742
C	 2.6736141322	 1.5148754972	 0.4002275992	-0.036624
C	 1.3470831534	 2.1367725629	 0.0289167083	-0.067244
H	-0.7598401216	 1.9033549103	-0.541334966	 0.139646
H	-0.1155479612	 2.9530033752	 1.572905747	 0.108135
H	 1.3464260003	 1.9789843247	 3.2298941629	 0.120825
H	 0.8236121026	 0.4042877385	 2.6264061061	 0.129659
H	 3.794838862	-0.3684536326	 0.7813922217	 0.118239
H	 1.9947938316	-0.5981440299	 0.6325056928	 0.156229
H	 3.5464302735	 2.0577364496	 0.0475287383	 0.098936
H	 1.3846410474	 3.0082883252	-0.6139142033	 0.107222
