20
gdb 79759	2.65503	1.96328	1.82377	1.5211	79.79	-0.2192	0.0856	0.3048	901.5002	0.174973	-366.003673	-365.997034	-365.99609	-366.034218	28.448	
C	-0.1832627231	 1.5367888516	 0.0329774237	-0.399399
C	-0.014089808	 0.0189588509	-0.0235542538	 0.045567
C	 0.5251930611	-0.5604120693	-1.3275750657	-0.074071
C	 2.015777483	-0.4799244947	-1.5509807522	-0.070755
C	 2.8437522505	 0.2020371248	-0.4730475951	-0.246658
C	 2.319242967	-0.3889491214	 0.8259531301	-0.047142
C	 1.5953975848	-1.6650680712	 0.5322921264	-0.058721
C	 1.3994554916	-1.7444613084	-0.9725657167	-0.082044
N	 0.8641706748	-0.4935773505	 1.0509402833	-0.124537
H	 0.7529970563	 2.0639717962	-0.1648821307	 0.119171
H	-0.9160345475	 1.8652000468	-0.7110709725	 0.112188
H	-0.5416253588	 1.8392412725	 1.0211013981	 0.125176
H	-0.9976210743	-0.4348943952	 0.1620215004	 0.078111
H	-0.1237329248	-0.5896207531	-2.1971139506	 0.079965
H	 2.3715315347	-0.4625123151	-2.5754758146	 0.081417
H	 3.9032533042	-0.0621244908	-0.5825507588	 0.102192
H	 2.7819752735	 1.2948974451	-0.503719286	 0.106517
H	 2.8934525118	-0.2350893636	 1.7358078879	 0.085386
H	 1.6388330477	-2.5589529176	 1.1442419229	 0.084658
H	 1.3716595554	-2.6915071071	-1.4942313361	 0.08298
