19
gdb 122762	6.04571	0.54036	0.50424	3.733	80.57	-0.2422	-0.0885	0.1536	2131.9362	0.156866	-419.218999	-419.208506	-419.207562	-419.256055	35.652	
C	 0.0339518479	 1.5371283791	-0.0799142214	-0.380662
C	-0.0369909943	 0.0293429934	 0.1725795405	-0.18437
C	-1.4409789272	-0.5373164398	-0.0325049721	-0.106751
N	-1.4747145382	-1.9683141084	 0.2450099968	-0.306573
C	-2.7614047597	-2.5800582561	 0.0574020048	-0.232083
C	-2.6480687436	-4.0800969378	-0.0702665833	 0.282777
O	-1.6133740257	-4.6782163539	-0.2242710105	-0.26642
C	-3.9384865717	-4.7996847879	-0.0373358526	 0.231368
N	-4.9543977148	-5.3511297988	-0.0095220489	-0.29411
H	 1.0497795701	 1.9141726555	 0.0690800007	 0.119171
H	-0.2659924249	 1.7853108532	-1.1039288303	 0.117201
H	-0.6269837129	 2.084475137	 0.6010093997	 0.11819
H	 0.6596011196	-0.489615178	-0.4999443667	 0.097556
H	 0.2882930924	-0.2029112654	 1.1927704982	 0.11376
H	-2.1399753518	-0.0410802877	 0.6546822907	 0.104466
H	-1.7925147038	-0.2971095998	-1.0550031124	 0.07983
H	-0.7769048164	-2.468871638	-0.2956433586	 0.234141
H	-3.4412787976	-2.351831387	 0.89215644	 0.146425
H	-3.3086782873	-2.2496325796	-0.8539964847	 0.126084
