16
gdb 46936	2.99674	1.87053	1.42194	3.5798	69.64	-0.2414	0.0225	0.2638	910.592	0.12658	-437.853016	-437.846407	-437.845462	-437.884137	26.334	
N	-0.0880610799	 1.2593484565	 0.246163797	-0.528782
C	 0.0047459369	 0.0225848798	-0.0156897507	 0.412558
O	 1.2121808019	-0.5447518835	-0.3085149918	-0.263536
C	 1.3333787021	-1.8880099718	-0.7850676897	-0.081576
C	 0.1710687105	-2.7710312177	-0.3943240325	 0.069364
O	-0.0682719778	-2.7142224688	 1.0433272471	-0.294972
C	-1.3350469839	-2.1110153522	 0.8002222022	 0.095192
C	-1.2150825729	-2.1874343253	-0.6899822761	-0.190018
C	-1.209575139	-0.8333018962	-0.0102094247	-0.135832
H	 0.832856549	 1.6987969568	 0.1852798338	 0.217626
H	 1.4345086908	-1.8780014965	-1.8797859208	 0.11359
H	 2.2651309756	-2.2705426682	-0.357253832	 0.129319
H	 0.3242730627	-3.8017213424	-0.7273250265	 0.099939
H	-2.1431526413	-2.3095445742	 1.4929862368	 0.121474
H	-1.9003474682	-2.4874046236	-1.4700927947	 0.110724
H	-2.1285254364	-0.2632381228	-0.0756403675	 0.124931
