21
gdb 47891	2.31611	1.49596	1.06059	3.0526	83.97	-0.2366	-0.0269	0.2097	1195.6839	0.184116	-387.11689	-387.108299	-387.107355	-387.150503	33.125	
O	-0.0263714918	-0.0561811112	-0.4740430574	-0.30204
C	-0.0282327864	 1.110539379	-0.1443973346	 0.339379
C	-1.337308289	 1.8904785703	-0.0388305453	-0.283339
C	-1.7355632095	 2.533687385	 1.310530273	-0.208486
C	-0.8633139674	 3.7141180874	 1.7952752318	-0.179913
C	 0.1817592806	 3.3606554765	 2.8662981185	-0.188288
C	 1.05955986	 2.1403761264	 2.5198916475	-0.259782
C	 1.766595173	 2.269784543	 1.1975161684	-0.031131
C	 1.2783940245	 1.8381622443	 0.0361100448	-0.152261
H	-1.2843747397	 2.690771839	-0.7918787631	 0.114629
H	-2.1208579683	 1.194755721	-0.3537712445	 0.117133
H	-2.7630309732	 2.8876997375	 1.1747650627	 0.106219
H	-1.7947416669	 1.7585906329	 2.0844692105	 0.107224
H	-0.3644020155	 4.1710112178	 0.9334192797	 0.100883
H	-1.5138177724	 4.4914722024	 2.2114313312	 0.096231
H	 0.8179743209	 4.23673673	 3.0432352358	 0.096812
H	-0.3259744072	 3.1518411032	 3.8164470678	 0.09871
H	 1.7947820273	 1.9929500352	 3.3186787779	 0.103837
H	 0.4358855345	 1.23968728	 2.5136558958	 0.116252
H	 2.7404065951	 2.7559189882	 1.2060047664	 0.094771
H	 1.8638074015	 1.9299434919	-0.8762911268	 0.113159
