20
gdb 85963	3.04085	1.16784	0.98575	2.6124	76.53	-0.2157	0.0293	0.245	1265.5696	0.171376	-436.469765	-436.460259	-436.459315	-436.504018	35.935	
C	-0.0409583222	 1.4735374457	 0.0251154116	-0.32201
N	-0.0477733036	 0.0311872151	 0.134370509	-0.083821
C	-1.2799151418	-0.6306412299	 0.6132468289	-0.208608
C	-0.394526413	-1.6599566214	 1.3773017906	 0.189187
N	-0.0557892393	-2.895386721	 0.6715514577	-0.588601
C	 0.7278815185	-0.5916687437	 1.2230568217	-0.191889
C	-0.8088251999	-1.925928819	 2.8273335012	 0.35999
N	-0.4916140659	-3.1658367326	 3.280877886	-0.53096
O	-1.3597778515	-1.074904712	 3.5031098717	-0.37915
H	 0.9609191724	 1.8206889195	-0.2506900527	 0.117842
H	-0.7321342431	 1.7871410363	-0.7645941141	 0.119703
H	-0.3360364208	 1.9817543973	 0.9619658447	 0.101027
H	-1.8654530644	-0.0223022875	 1.315668595	 0.117268
H	-1.9293086356	-1.0268085301	-0.1765784657	 0.087064
H	-0.9073810647	-3.3996123036	 0.4342604448	 0.232879
H	 0.3870215313	-2.6583263013	-0.2120654603	 0.244527
H	 1.7202498056	-0.9641843014	 0.9429987801	 0.099488
H	 0.8073464371	 0.0360987484	 2.1226536737	 0.109604
H	 0.0654306863	-3.7683909577	 2.6958598494	 0.269045
H	-0.6336184055	-3.372736151	 4.2552662966	 0.257414
