18
gdb 37585	3.49579	1.98374	1.96138	1.59	76.92	-0.2294	0.012	0.2414	808.998	0.152829	-364.807402	-364.801916	-364.800972	-364.836769	24.927	
C	-0.0378916236	 1.5695533786	 0.0027033849	-0.254127
C	 1.4588464018	 1.8225351329	 0.0229847505	-0.042158
C	 2.1006569661	 0.7161338894	 0.7829490639	-0.035969
C	 1.0269301138	-0.3406433665	 1.1623050892	-0.091502
C	 1.5434508637	-1.6887000507	 0.6959935844	-0.0836
C	 1.5879134561	-1.6606849486	-0.640566031	-0.07
C	 1.0948550786	-0.2982783726	-1.0720824211	-0.035599
C	 0.0434670572	 0.0482553282	 0.013686974	-0.045826
N	 2.1631894646	 0.7214522651	-0.6930114763	-0.122662
H	-0.5437451259	 1.9824253733	 0.8820660753	 0.10193
H	-0.5251818431	 1.9640529851	-0.8954322681	 0.1026
H	 1.8844385161	 2.815729179	-0.0675834497	 0.088239
H	 3.0343003381	 0.8011239158	 1.3265034308	 0.088454
H	 0.6539334137	-0.2726895222	 2.1849447484	 0.064547
H	 1.8993246834	-2.4737012776	 1.3512671945	 0.097755
H	 1.9877591165	-2.4136021102	-1.3066379792	 0.100387
H	 0.8081783779	-0.174620273	-2.1164950891	 0.065551
H	-0.8836618549	-0.5212278259	-0.0165398414	 0.07198
