16
gdb 84469	4.20282	1.20515	1.05415	1.9475	77.05	-0.2356	-0.0112	0.2244	1120.8598	0.124345	-400.687535	-400.67972	-400.678776	-400.719611	30.867	
O	-0.0093228813	 1.4484562061	-0.049643553	-0.434829
C	 0.0628437775	 0.0339795521	-0.0398804987	 0.094734
C	 0.7287332009	-0.5138981178	 1.2171319181	-0.119712
C	-0.0699874441	-1.3213534655	 1.9122704271	-0.146224
C	-1.4038943156	-1.4617280617	 1.2324219176	 0.19427
N	-2.1121069729	-0.1315980543	 1.1408114159	-0.384809
C	-1.3225207819	-0.6259522359	-0.0007846543	-0.133848
C	-2.1766404494	-2.6614279867	 1.3266245692	 0.166425
C	-2.8258522067	-3.6687072161	 1.4321888138	-0.386573
H	-0.6372725389	 1.6737275504	 0.6511085842	 0.290446
H	 0.6099360769	-0.242714781	-0.9478651804	 0.094421
H	 1.717126592	-0.1851869127	 1.515855634	 0.111172
H	 0.1503240943	-1.8040153274	 2.8560805634	 0.113263
H	-3.0994079136	-0.3064916443	 0.957420505	 0.240985
H	-1.830407121	-0.9069690893	-0.9156650841	 0.105965
H	-3.3948819664	-4.5613912358	 1.5159419122	 0.194314
