21
gdb 62953	2.06717	1.81436	1.41474	1.7938	81.91	-0.2472	0.0834	0.3307	1061.4728	0.180733	-387.041252	-387.032455	-387.031511	-387.073902	34.961	
C	-0.0366642661	 1.5498287404	-0.0542851566	-0.4467
C	-0.0159668173	 0.0266033967	 0.0045817262	 0.189849
C	-1.3949750202	-0.5873965592	-0.2281380119	-0.444598
C	 1.0629978991	-0.6521722468	-0.8828149782	 0.010658
O	 2.3498919934	-0.1872017886	-0.4707372993	-0.255532
C	 1.7316362469	-1.2470654763	 0.2829581555	-0.086494
C	 0.7382464106	-0.6077207074	 1.2276749175	 0.344752
C	 1.0183648869	-0.0342138418	 2.5823158328	-0.322881
C	 0.1326678632	-1.2521977782	 2.4391825294	-0.338237
H	 0.9759672861	 1.9475411187	 0.0441196854	 0.135423
H	-0.4580686229	 1.9006445935	-1.0034094374	 0.108724
H	-0.651163734	 1.9664295183	 0.7521940125	 0.10767
H	-1.7951806172	-0.2822965986	-1.201880361	 0.112564
H	-1.3562730378	-1.6812748767	-0.2045904752	 0.115997
H	-2.106632532	-0.260791286	 0.5377538941	 0.115758
H	 0.9604261777	-1.0105291202	-1.9018926058	 0.096447
H	 2.2897175642	-2.1707016406	 0.3904520344	 0.10137
H	 2.0123198921	-0.159380448	 2.9993052458	 0.115752
H	 0.5431679943	 0.9064048493	 2.8423001701	 0.11446
H	-0.9325034832	-1.1331249104	 2.6094050056	 0.112857
H	 0.5244874761	-2.2138065781	 2.7566307562	 0.112163
