20
gdb 87482	4.0443	1.13074	1.0369	2.4623	80.57	-0.2326	0.061	0.2936	1223.4381	0.169852	-403.037223	-403.028459	-403.027515	-403.070397	33.737	
C	-0.1655265039	 1.5420375594	 0.0533498138	-0.44948
C	 0.0299202115	 0.0417306391	-0.0442694286	 0.108161
C	 0.8322555408	-0.6575536594	-1.1793287891	-0.186651
C	 2.0950724723	-0.1420407891	-0.4522301775	-0.180562
N	 1.2151174358	-0.6057736928	 0.7308765319	-0.202663
C	 0.9340908726	-1.8029803733	-0.1657299866	 0.399063
C	 0.1040404225	-3.007403082	 0.1469016275	-0.438815
C	 1.6025349822	-3.1206319779	-0.151034739	 0.006167
O	 2.0913171457	-3.7356635505	-1.3100794679	-0.429475
H	 0.6986875791	 2.129227625	-0.2637324938	 0.121681
H	-1.0165098642	 1.8403916417	-0.5686003053	 0.121159
H	-0.3983088987	 1.8161562402	 1.0876094091	 0.133807
H	-0.9042894137	-0.4655126039	 0.2168357105	 0.07954
H	 0.6141802106	-0.6996723954	-2.2536839803	 0.060349
H	 3.0107090312	-0.727206753	-0.5571323928	 0.114669
H	 2.3095258303	 0.9264512934	-0.4565092494	 0.101048
H	-0.2234526735	-3.1739357851	 1.16869989	 0.125407
H	-0.5869873863	-3.3611384452	-0.6141782004	 0.112031
H	 2.2452921142	-3.3562611611	 0.6916523068	 0.119272
H	 1.6535641714	-3.3432362501	-2.0721991188	 0.285292
