21
gdb 92182	2.949	1.7686	1.53833	1.3629	81.33	-0.2037	0.0839	0.2876	971.3405	0.186116	-383.212417	-383.205387	-383.204443	-383.243338	29.751	
C	-0.0138548134	 1.4531127537	-0.0312850325	-0.323193
N	-0.0128536057	 0.0056174518	 0.0612315265	-0.052734
C	-1.364156494	-0.5689958563	 0.0244993862	-0.173501
C	-1.2840879735	-1.9890717476	 0.5836265956	-0.013454
C	-0.0443931858	-2.6940649314	-0.0200561817	-0.237258
C	 0.6828694134	-2.0888074241	 1.1796551085	 0.009921
C	 0.7036736783	-0.521534981	 1.2218643862	-0.009743
C	-0.2328533319	-0.6746651912	 2.4543584463	-0.189198
N	-0.6195206073	-2.040177835	 1.9675171816	-0.146967
H	 1.0154986357	 1.8251476939	-0.0539555411	 0.11746
H	-0.5035770122	 1.7579427116	-0.9624658034	 0.118434
H	-0.5421220898	 1.9541845744	 0.8023942512	 0.09231
H	-2.0878873485	 0.0279956019	 0.608191707	 0.08489
H	-1.7314952516	-0.587776829	-1.009983622	 0.100851
H	-2.2515619545	-2.4941494682	 0.5510134531	 0.073733
H	-0.0987898859	-3.7813687836	 0.0641604538	 0.106676
H	 0.2642838678	-2.399680146	-1.0239058834	 0.108233
H	 1.5379789192	-2.5900831741	 1.6412361434	 0.066855
H	 1.6628809311	-0.0069082428	 1.3263139515	 0.062091
H	 0.3036366899	-0.7875194004	 3.4017001079	 0.104197
H	-1.0425417613	 0.0481655236	 2.5939545153	 0.100396
