17
gdb 63335	2.55764	1.50575	1.19251	3.5107	70.08	-0.2728	0.	0.2727	1080.1628	0.135466	-455.221676	-455.212823	-455.211879	-455.255932	32.659	
C	-0.0509972131	 1.5601644979	 0.0166252822	-0.406532
C	-0.0375256267	 0.0238941537	-0.0022423285	 0.150675
C	-1.4644077209	-0.5451012065	-0.0355364335	-0.406659
N	 0.7947203522	-0.5082048715	-1.0742224764	-0.382235
C	 1.8589292332	-1.2369547041	-0.6499716149	 0.475158
O	 2.7117617568	-1.7972751822	-1.271417716	-0.374753
O	 1.8178877135	-1.243113584	 0.7511696824	-0.239016
C	 0.7353399889	-0.5248807174	 1.1963048002	 0.403536
N	 0.421113557	-0.3420960749	 2.3990669019	-0.52527
H	 0.9667774043	 1.9587511836	 0.0197977684	 0.130343
H	-0.5745157256	 1.9476851115	-0.8633824751	 0.117267
H	-0.5654107254	 1.9112735964	 0.9139045725	 0.152481
H	-2.0010313886	-0.1774175159	-0.9161680396	 0.117309
H	-1.447699291	-1.6375205	-0.0689784397	 0.130346
H	-2.0047880248	-0.232271417	 0.8606422062	 0.152514
H	 0.6265856093	-0.3749739793	-2.0564779738	 0.266819
H	 1.078558481	-0.7998418602	 3.0312246239	 0.238016
