15
gdb 34592	4.37053	1.105	0.95535	5.096	73.18	-0.2616	-0.0563	0.2054	1194.6543	0.113022	-416.811471	-416.803829	-416.802884	-416.844251	28.292	
N	 0.1332895703	-1.081391651	-0.21168716	-0.311241
C	 0.0340044775	 0.0629945998	-0.0925726826	 0.284454
C	-0.0829301922	 1.4871922032	 0.0570313049	 0.311796
N	-1.1571867742	 2.140219005	-0.1270528445	-0.304178
C	-0.8093199986	 3.5459417196	 0.134881257	-0.261456
C	 0.6800079267	 3.514827817	 0.4992157997	 0.393028
C	 1.7133244238	 4.5102170775	 0.0897144889	-0.326198
C	 1.3506941522	 4.3265223176	 1.5563708055	-0.326172
O	 1.0542677767	 2.1249646644	 0.417701798	-0.266502
H	-1.0161764035	 4.1457296727	-0.7584954991	 0.135334
H	-1.4374501903	 3.9325794883	 0.9452003759	 0.135339
H	 2.6727100573	 4.125932469	-0.237338423	 0.140133
H	 1.3779049859	 5.4048027575	-0.4251586942	 0.127769
H	 0.7654481301	 5.0945555864	 2.0518456835	 0.127763
H	 2.0730643186	 3.8221808928	 2.1879407499	 0.14013
