23
gdb 58266	2.47225	1.20256	1.09463	3.1303	81.31	-0.2478	0.0655	0.3132	1280.5933	0.205004	-425.412645	-425.402597	-425.401652	-425.447886	37.459	
C	-0.0407413742	 1.4881952292	-0.155069615	-0.410345
C	 0.026711609	-0.0377999692	-0.0227564013	 0.153713
O	 0.6184128406	-0.6220942629	-1.174976175	-0.446497
C	 0.70627214	-0.5374272673	 1.2841128378	-0.042212
C	 0.7027204771	-2.0713838518	 1.3211662196	-0.401738
C	 2.0971392441	 0.083916603	 1.4462164504	 0.155793
C	 3.1614747712	-0.5388576722	 2.3822356992	-0.311587
C	 4.0281571125	-0.6440156341	 1.1120251643	-0.059975
O	 2.9534032166	-0.1477676325	 0.2841302074	-0.304884
H	 0.9563493173	 1.9214082046	-0.2827207487	 0.123217
H	-0.6284528634	 1.7497211993	-1.0390274744	 0.12123
H	-0.5106479204	 1.9506787593	 0.7207153271	 0.101944
H	-1.0020292284	-0.4214420951	-0.0066673518	 0.076416
H	 1.5730947373	-0.4864924853	-1.0940246521	 0.290753
H	 0.1031413689	-0.1606356861	 2.123135393	 0.072035
H	 0.9991969201	-2.458662609	 2.299906907	 0.10479
H	-0.3010425523	-2.4513361896	 1.1080901457	 0.116684
H	 1.3719956725	-2.4811024968	 0.5611846229	 0.130719
H	 1.9926077772	 1.1641435586	 1.6057674134	 0.081811
H	 3.5385694448	 0.12006429	 3.1653065159	 0.111479
H	 2.887602418	-1.497488292	 2.8214782758	 0.11779
H	 4.898870299	 0.0219489152	 1.0806885022	 0.107005
H	 4.3383413325	-1.6517120354	 0.8148193767	 0.111858
