18
gdb 12074	3.57462	1.65061	1.49333	1.8153	66.86	-0.2533	0.0611	0.3144	928.1532	0.15205	-384.899965	-384.891882	-384.890937	-384.932053	30.854	
C	-0.1508311517	 1.5252416123	-0.0442473845	-0.406663
C	 0.0951642609	 0.0126330538	-0.0494628316	-0.223738
C	 0.7531152691	-0.5079911201	 1.2243596317	 0.393533
O	 2.0599461972	 0.0021756012	 1.4169473461	-0.49155
C	-0.1031561342	-0.489809956	 2.5599721861	-0.318351
C	 0.054752268	-2.0128978689	 2.6171143739	 0.035752
O	-0.5007960615	-2.5384048711	 1.401199394	-0.250297
C	 0.8390247122	-2.0415358945	 1.3765570654	-0.005833
H	 0.7862061925	 2.0909085541	 0.0223701491	 0.106868
H	-0.6464668144	 1.8425341535	-0.9661214627	 0.122828
H	-0.7873634483	 1.8275835909	 0.794637322	 0.120718
H	-0.8513527381	-0.5213477501	-0.1788132289	 0.117744
H	 0.7375566688	-0.2538223357	-0.8979501465	 0.10034
H	 1.9995029825	 0.9591904344	 1.5031364536	 0.280987
H	 0.4413125398	 0.0293084829	 3.3519352397	 0.106532
H	-1.1337541645	-0.1298191909	 2.5052268465	 0.102791
H	 0.0703494681	-2.6726072389	 3.476491064	 0.104502
H	 1.6292185235	-2.6991084668	 1.0327393021	 0.103837
