18
gdb 49512	3.9277	1.31453	1.26121	3.4222	75.75	-0.2371	-0.0174	0.2197	1035.4044	0.149588	-401.897371	-401.890425	-401.889481	-401.92882	28.083	
O	-0.6515734063	 0.7968611651	 0.6355044564	-0.251282
C	 0.1567470742	 1.0022934077	-0.2375556244	 0.106847
C	 1.3560069708	 1.8944093298	-0.1408766677	-0.059005
C	 1.2028787307	 3.2899661133	-0.8456944301	-0.074144
C	 0.4471155476	 3.7358370239	 0.4527770014	-0.228591
C	 1.4921408258	 2.7760847715	 1.1281561072	-0.052163
C	 2.7843013174	 3.5720467913	 0.8435996995	-0.043189
N	 3.6660698497	 2.9997851123	-0.2043821721	-0.340758
C	 2.5805644953	 3.9368065323	-0.57697979	-0.037605
H	 0.0647975454	 0.490903773	-1.2248262268	 0.073466
H	 2.2374220031	 1.327827255	-0.4540324796	 0.120485
H	 0.7733558416	 3.3877574221	-1.843043679	 0.069469
H	 0.4970092326	 4.7963065028	 0.7158819155	 0.089114
H	-0.577053055	 3.3692205824	 0.5202875022	 0.125809
H	 1.3377918605	 2.3613117305	 2.1222855597	 0.079095
H	 3.1952465506	 4.2446991841	 1.5871066001	 0.095253
H	 4.5464101356	 3.5112720576	-0.2016170589	 0.231123
H	 2.8220134705	 4.9056350252	-0.9984234136	 0.096078
