17
gdb 110815	4.60201	0.93201	0.91064	4.1835	72.86	-0.2561	0.0203	0.2764	1289.3155	0.136503	-417.956836	-417.948433	-417.947489	-417.990329	30.84	
O	 0.4015433195	 0.8011134463	 1.1003978184	-0.407519
C	 0.0770975458	 0.0080554339	-0.0309658837	-0.104396
C	-1.3197001012	-0.5779003792	 0.0451109623	-0.046137
C	-1.6866230144	-1.9986181455	-0.1465132747	-0.045703
C	-0.5885157922	-2.953496407	 0.3546990792	-0.1921
C	-0.7141085525	-2.1962399116	 1.7172014603	-0.177187
N	-1.8359233608	-1.3334498309	 1.2077234459	-0.134013
C	-0.9867833683	-4.3505147344	 0.4041398275	 0.268048
N	-1.3032817453	-5.4617249599	 0.4422743161	-0.317758
H	-0.3150377517	 1.4276476132	 1.2463766463	 0.292356
H	 0.1565301906	 0.5838191221	-0.9658743521	 0.103775
H	 0.8499195032	-0.7636261875	-0.0731005454	 0.117831
H	-2.0919711168	 0.1110065103	-0.2962365736	 0.108599
H	-2.5392957772	-2.3174203841	-0.7364655254	 0.120757
H	 0.3729079097	-2.8855976766	-0.1634862116	 0.129662
H	-1.0787376435	-2.8341496518	 2.5216985683	 0.141647
H	 0.1625854752	-1.6383055373	 2.0505025623	 0.142139
