15
gdb 98965	5.10942	0.73435	0.64467	6.4723	67.11	-0.2539	-0.0889	0.165	1612.9533	0.109501	-491.095795	-491.085901	-491.084957	-491.133584	32.781	
O	 0.2660200601	 1.2924522549	 0.0135705723	-0.383559
C	-0.0008879085	-0.0804578483	-0.0012595003	-0.196127
C	-1.5235945285	-0.2768690743	 0.0159086694	 0.416574
O	-2.3173176181	 0.6200598705	 0.0296261346	-0.270417
N	-1.8591598846	-1.6377672239	 0.0125483991	-0.397593
C	-3.122556447	-2.2206142521	 0.0204514046	 0.298772
N	-4.2222713782	-1.5869315847	 0.0310760351	-0.440182
C	-3.0612498947	-3.7393878277	 0.0148246968	 0.103094
O	-4.0495453978	-4.4207985163	 0.0198889238	-0.224309
H	 1.2198631233	 1.4132583708	-0.004615368	 0.296816
H	 0.3977552722	-0.5817086606	-0.9009515867	 0.110104
H	 0.4220762567	-0.6054384465	 0.8735191661	 0.10937
H	-1.0845215525	-2.2855999641	 0.0027402474	 0.249586
H	-4.9758796353	-2.2812082195	 0.0345835206	 0.24528
H	-2.0433406072	-4.1945448281	 0.0057743851	 0.082591
