21
gdb 90972	3.68526	1.35748	1.26438	1.3194	82.74	-0.2397	0.0921	0.3317	1097.5844	0.184405	-387.02818	-387.020746	-387.019802	-387.059932	31.035	
C	-0.2117388591	 1.5387947788	 0.0395893494	-0.392446
C	 0.065901697	 0.0453937813	 0.0182596773	 0.137573
C	 0.6996327509	-0.4830955179	-1.3255555891	-0.333736
C	 1.548651328	-1.6360466111	-0.7894988116	 0.001435
C	 3.0981237953	-1.89111706	-0.6826179607	-0.105228
C	 3.2779187254	-0.4500049928	-0.1540091149	-0.286308
C	 1.9958028699	-1.0326136308	 0.5349787997	 0.438612
C	 2.8123923945	-2.324138601	 0.8146203226	-0.294545
O	 0.9793429071	-0.2911302167	 1.1138314244	-0.337358
H	 0.7078107914	 2.1055305565	-0.1369826192	 0.120311
H	-0.9367484145	 1.8021107923	-0.7381283464	 0.113535
H	-0.6214278669	 1.8424775213	 1.0068582201	 0.127072
H	-0.8653656159	-0.5036886358	 0.2129012596	 0.080596
H	-0.0820814187	-0.7951224145	-2.0224117098	 0.10137
H	 1.2754989242	 0.3108456932	-1.807525222	 0.108538
H	 0.9533238632	-2.5494590862	-0.6880990718	 0.067263
H	 3.7426480383	-2.4207834965	-1.3812709988	 0.080652
H	 4.141393254	-0.2737291894	 0.4918024861	 0.090146
H	 3.1458487557	 0.3661942221	-0.8649668477	 0.090692
H	 2.2420609589	-3.2456487762	 0.9552997603	 0.096468
H	 3.6595514313	-2.2547413067	 1.5013917626	 0.095359
