13
gdb 130363	5.76862	0.9809	0.84084	8.1134	76.24	-0.2367	-0.0754	0.1613	1262.0567	0.089519	-445.065904	-445.058116	-445.057172	-445.098855	27.458	
N	 0.0466196913	 1.3348729002	 0.0795063237	-0.480755
C	-0.021923447	 0.0030291749	-0.0446686998	 0.154691
N	-1.1354246945	-0.6327740462	 0.1257210908	-0.354704
C	-1.1025830339	-2.0058122507	 0.0590077043	 0.422869
C	-2.3012454678	-2.7271012941	-0.0793920209	-0.012104
N	-2.2993908612	-4.0414261839	-0.1228855446	-0.169739
N	-1.1239093674	-4.6845176362	-0.0458892352	-0.076311
N	-0.001595454	-4.0231376669	 0.0866062997	-0.0687
N	 0.0382299388	-2.6974797459	 0.1561897403	-0.269564
H	 0.902866396	 1.8320085902	-0.0869880431	 0.28245
H	-0.7809122191	 1.8534015773	 0.3293011664	 0.280145
H	 0.9170295613	-0.4934844949	-0.3004634289	 0.15257
H	-3.2577768625	-2.217110244	-0.1495973928	 0.139151
