18
gdb 111383	2.18416	1.67585	1.13899	1.0155	76.73	-0.2381	0.0173	0.2554	1098.283	0.147167	-401.85495	-401.846413	-401.845468	-401.888006	32.714	
O	 0.1403485629	 1.3626211076	 0.0723662005	-0.42366
C	 0.0740684563	-0.0243114633	-0.2139694781	-0.096592
C	-1.3358277363	-0.5717287129	-0.0171232667	-0.029326
C	-1.5769474815	-2.0786534692	-0.0682927738	-0.050793
C	-0.9708842527	-2.7864904175	 1.0764394878	-0.244474
N	-2.2634874587	-2.1110160634	 1.2918513971	-0.133219
C	-1.9544226771	-0.6266388755	 1.4269917741	-0.175925
C	-1.1219943639	-0.2304105352	 2.5482868121	 0.349548
C	-0.4059450507	 0.1115978127	 3.4542089342	-0.466891
H	 0.041692645	 1.4552194153	 1.0271047969	 0.286978
H	 0.3664113447	-0.1408769258	-1.2637448702	 0.110533
H	 0.7973595675	-0.590395852	 0.3891846603	 0.09388
H	-2.0166306082	-0.0289782356	-0.6767934329	 0.096755
H	-1.9982863185	-2.6092546904	-0.9157626792	 0.100687
H	-1.0669834729	-3.8675303152	 1.0952107002	 0.126671
H	-0.0842587855	-2.4028250909	 1.5726548745	 0.126931
H	-2.9076980335	-0.0954579228	 1.4740679947	 0.120063
H	 0.202924173	 0.4036608341	 4.2746089886	 0.208835
