17
gdb 126068	3.82323	1.07063	1.01968	3.5174	74.81	-0.2338	0.0156	0.2494	1212.9346	0.137517	-418.008794	-418.000827	-417.999883	-418.041938	29.621	
C	-0.0423115457	 1.5029576318	-0.2777818797	-0.429102
C	-0.0344395881	 0.0259539184	 0.0100594382	 0.085083
O	 1.2202691087	-0.6591276292	-0.0471612929	-0.256436
C	 0.5603209189	-0.5850150962	 1.2223080211	-0.092936
C	 1.2516824065	 0.171395062	 2.2857180274	 0.218356
C	 0.9243364254	 0.2355680487	 3.6277523309	-0.141364
N	 1.8507881825	 1.0345763266	 4.209577084	-0.176483
N	 2.7747882216	 1.4945160144	 3.3465458375	-0.226305
C	 2.4148383841	 0.9727775935	 2.1780756153	-0.080818
H	 0.7181001193	 2.0310063217	 0.3009516864	 0.136957
H	 0.1433142144	 1.6829046467	-1.3418786778	 0.129334
H	-1.0220781435	 1.9274269732	-0.0328102539	 0.12026
H	-0.8491320877	-0.5340757539	-0.4555139691	 0.087533
H	 0.1230174084	-1.5314251882	 1.5469001517	 0.088519
H	 0.1247257332	-0.2155562949	 4.1941332816	 0.134784
H	 1.9165027092	 1.2949413706	 5.178900539	 0.276109
H	 3.0014219427	 1.1605427248	 1.2921701104	 0.126509
