20
gdb 15002	4.18744	1.45453	1.16074	1.5795	71.56	-0.2565	0.0938	0.3503	1085.0671	0.178231	-386.156023	-386.148033	-386.147088	-386.188352	30.314	
C	-0.0357832541	 1.5175564519	 0.0342468685	-0.384552
C	 0.0239496014	-0.0099100379	-0.0205518703	-0.205963
C	 0.743191303	-0.5312983847	-1.2517251792	 0.227638
O	 2.080512197	-0.0853092045	-1.21574206	-0.250234
C	 2.8208263118	-0.5368318929	-2.3410111238	-0.075544
C	 2.7769813264	-2.0637231495	-2.4287169037	-0.205677
C	 1.313917806	-2.5089579339	-2.3749510654	-0.07894
O	 0.6610311498	-1.9380587486	-1.2495188899	-0.251358
H	 0.9699543469	 1.9448765553	 0.0336243539	 0.134183
H	-0.5751791139	 1.9264871801	-0.8275844763	 0.110481
H	-0.5520321552	 1.8536568018	 0.9380614508	 0.112116
H	 0.5444474595	-0.409503021	 0.8563308849	 0.113355
H	-0.9824941031	-0.4407861723	-0.022689219	 0.105815
H	 0.2712502386	-0.1507157792	-2.1818756761	 0.045967
H	 2.4070464006	-0.0940858204	-3.2636618571	 0.086706
H	 3.8400649424	-0.1622642468	-2.2148094048	 0.109476
H	 3.2537142381	-2.4125967322	-3.351636081	 0.096499
H	 3.3183592843	-2.4915685182	-1.5785411597	 0.114331
H	 0.7948323183	-2.2073358758	-3.3014765033	 0.086099
H	 1.2191640524	-3.5932655913	-2.2734193784	 0.109603
