20
gdb 9150	4.98809	0.7415	0.6855	1.2431	81.37	-0.2399	0.0363	0.2762	1694.7702	0.17434	-348.976042	-348.965525	-348.964581	-349.014006	35.959	
C	 0.0161660775	 1.4827289844	 0.2423028196	-0.393768
C	 0.1170926875	-0.0359649748	 0.0761300424	-0.15708
C	 0.6746279104	-0.4873900021	-1.2967418062	-0.144861
C	 2.1333590613	-0.0408938895	-1.5275143217	-0.382258
C	 0.560145163	-1.938510575	-1.4449435591	 0.058022
C	 0.4866083426	-3.1363722192	-1.5455079818	 0.109729
C	 0.3681205333	-4.5824636172	-1.678945053	-0.216048
O	 1.6577012873	-5.1809613448	-1.5961058228	-0.409978
H	 0.9971872515	 1.9665780416	 0.2203573631	 0.120502
H	-0.5936307962	 1.9289985273	-0.5517246922	 0.113825
H	-0.4511573104	 1.7352432578	 1.1990718592	 0.114316
H	 0.7482259812	-0.4616298017	 0.8657293879	 0.105189
H	-0.8752484434	-0.4822117395	 0.203622181	 0.103944
H	 0.053748648	-0.0187961352	-2.0750134336	 0.098522
H	 2.7881300823	-0.4562346323	-0.7550876476	 0.126117
H	 2.4945195015	-0.3905135463	-2.4979106857	 0.12638
H	 2.2173399941	 1.048941781	-1.5042467331	 0.114343
H	-0.2972154592	-4.9652927376	-0.8874156194	 0.112678
H	-0.1165796318	-4.8182953485	-2.6408349116	 0.112827
H	 1.5370398493	-6.1315984884	-1.6882627054	 0.287598
