19
gdb 7804	3.19936	1.78988	1.23011	3.1011	72.51	-0.2181	-0.013	0.2052	1004.7936	0.166517	-365.084376	-365.076593	-365.075648	-365.11641	29.586	
C	-0.0092491588	 1.4644457458	 0.0155838142	-0.316778
N	 0.0149451934	 0.0124684567	-0.0305054954	-0.06581
C	 0.6865394714	-0.4971688728	-1.2197734238	-0.130693
C	 0.4993577904	-2.010501332	-1.330890037	-0.21744
C	 1.0446416952	-2.7249183125	-0.0838254423	-0.297565
C	 0.5561534265	-2.0752477095	 1.1996755697	 0.388177
O	 0.2280586788	-2.7056566627	 2.1762943824	-0.302732
C	 0.5683142192	-0.5478343244	 1.1986749868	-0.239544
H	 1.000569113	 1.9141846449	 0.0826033309	 0.092532
H	-0.4957646942	 1.855280815	-0.8834599002	 0.119789
H	-0.5831067052	 1.7978102843	 0.8859229639	 0.122773
H	 0.2522098882	-0.0017842399	-2.0944612069	 0.102403
H	 1.7697233578	-0.2504223398	-1.216989213	 0.071622
H	-0.5696700842	-2.2236196718	-1.439267231	 0.116879
H	 1.0017340501	-2.3850340508	-2.2286322835	 0.101716
H	 0.7953404948	-3.7882008494	-0.0591614979	 0.121763
H	 2.1421450596	-2.6440233527	-0.0752433306	 0.120547
H	 1.6230397201	-0.2293945343	 1.3614654802	 0.088089
H	-0.0112755761	-0.2047287844	 2.0593754035	 0.124269
