20
gdb 115851	2.8117	1.30297	1.15781	1.7851	74.77	-0.2258	0.0785	0.3043	1149.2543	0.171802	-440.246984	-440.23843	-440.237486	-440.280009	32.733	
C	-0.4517175327	 1.2653410651	-0.1526854628	-0.324878
N	 0.0008194594	-0.1046559797	 0.0613496902	-0.089229
C	 1.3590347912	-0.5322446336	-0.2131196891	-0.053391
C	 2.4690566191	 0.5064765871	-0.2120622181	-0.113316
O	 2.312500761	 1.2531604599	 0.9932559312	-0.28299
C	 1.6729701486	 0.4256878328	 1.9740653069	 0.089993
C	 0.9878977023	 1.3479440392	 2.9760722647	-0.076576
O	 1.922790372	 2.2107820547	 3.5948132334	-0.423745
C	 0.8152909463	-0.5487537313	 1.1817207647	-0.079239
H	 0.2917528767	 2.0419158171	 0.0601289594	 0.126716
H	-0.7680508152	 1.3573291808	-1.1970183823	 0.120114
H	-1.3311938002	 1.4424419708	 0.4742345196	 0.125333
H	 1.4846886363	-1.4226175796	-0.8242808165	 0.09542
H	 3.4466749652	 0.0001264725	-0.2444568257	 0.10275
H	 2.4236489732	 1.2162042388	-1.0454642994	 0.113552
H	 2.4340674079	-0.1593879465	 2.5198750178	 0.078925
H	 0.1848796047	 1.9112841703	 2.4799406809	 0.092416
H	 0.5341946423	 0.7468018609	 3.7712130797	 0.108835
H	 2.4082647489	 2.6362617685	 2.8785777849	 0.292682
H	 0.488103483	-1.4571958877	 1.6813508004	 0.096627
