16
gdb 43297	3.15038	1.80503	1.39301	2.1437	74.33	-0.2311	-0.0631	0.168	914.8494	0.127108	-400.729224	-400.722808	-400.721864	-400.759878	26.198	
O	-0.0051865029	-0.0135316309	-0.302976058	-0.339721
C	-0.0508448695	 1.1681436209	-0.0250942462	 0.405902
C	-1.3229656177	 1.9085915471	 0.1258820108	-0.208701
C	-1.3358259048	 3.1743557643	 0.5744612859	-0.032267
C	-0.1164011016	 3.8895266765	 1.0090806749	-0.063895
C	 1.1586810811	 3.1580046444	 1.1433801846	-0.059437
C	 1.1899095214	 2.0364889162	 0.0854671465	-0.176041
C	 1.1765500711	 3.2127952096	-0.9463583442	-0.167265
N	 1.0541824093	 4.2559398098	 0.1187366204	-0.15418
H	-2.233239376	 1.3749628477	-0.1262775558	 0.116096
H	-2.2784373744	 3.7054134688	 0.6792322597	 0.114791
H	-0.2832547145	 4.7034494608	 1.7067667482	 0.109117
H	 1.8032724368	 3.2311143988	 2.0134692043	 0.10534
H	 2.0861626825	 1.419166346	 0.0680435738	 0.100802
H	 2.1443618201	 3.3359036148	-1.4351664482	 0.131048
H	 0.3828394591	 3.2195985754	-1.6984738967	 0.11841
