21
gdb 102595	2.82193	1.03229	0.86399	3.0651	75.09	-0.2369	0.0665	0.3035	1397.0895	0.18074	-461.315266	-461.304984	-461.30404	-461.351528	35.747	
C	 0.0571630292	 1.0063198181	-1.2198897339	-0.23559
O	-0.1640518438	 0.3139870407	-0.0045314542	-0.25191
C	-1.3075824049	-0.5213073725	 0.0362655625	 0.088832
C	-1.0211155647	-1.9129143139	-0.5321975647	-0.077513
O	-0.850356268	-1.8104795051	-1.9386528447	-0.420859
C	-1.7632160163	-0.6076147735	 1.4907809574	-0.048797
C	-0.7010090861	-0.8900572096	 2.5815795218	-0.077063
O	-1.0684039998	 0.300282417	 3.3061779436	-0.273477
C	-1.9696183228	 0.7150892679	 2.2597338223	-0.088563
H	 0.8984568229	 1.6821948983	-1.0451111841	 0.120839
H	 0.2940645241	 0.325145193	-2.0426778547	 0.130216
H	-0.8220549144	 1.6048522594	-1.503622471	 0.101132
H	-2.1168456203	-0.074311343	-0.5660980133	 0.075799
H	-0.1172819947	-2.3087490578	-0.0452057297	 0.098694
H	-1.8616472418	-2.5820878602	-0.2867666978	 0.084016
H	-0.5427966872	-2.6595492756	-2.2688015895	 0.289574
H	-2.6277765915	-1.272472664	 1.5607210255	 0.079244
H	-0.8435489577	-1.7965628069	 3.181960344	 0.093346
H	 0.3340180046	-0.845660617	 2.2235108174	 0.112205
H	-1.5991572802	 1.6005212309	 1.7300074373	 0.105629
H	-2.9798649467	 0.9086505839	 2.6396872658	 0.094248
