20
gdb 93592	4.4648	0.93148	0.79921	4.762	88.12	-0.2586	-0.0335	0.2251	1435.0058	0.172479	-366.063371	-366.054678	-366.053733	-366.096652	33.107	
C	 0.000580583	 1.5749998339	 0.0028471714	-0.406224
C	 0.0182569795	 0.0447909989	-0.0058759956	 0.029853
C	 0.6966520012	-0.5211394556	-1.26218073	-0.205843
C	 0.5989835655	-2.050577685	-1.3202548056	-0.310657
C	 0.9430088606	-2.6836358085	 0.0146870854	 0.163767
C	 1.0002936512	-1.9867522194	 1.1596208128	-0.125067
C	 0.7061170632	-0.5177869836	 1.2498916197	-0.25001
C	 1.211252538	-4.0881365929	 0.0154709806	 0.21406
N	 1.421004688	-5.2270542342	-0.0228488229	-0.339039
H	 1.0191645442	 1.9790814237	-0.0341623975	 0.116064
H	-0.5458240223	 1.9693095259	-0.8599782238	 0.115928
H	-0.4781087054	 1.9632510577	 0.9082037483	 0.114675
H	-1.0216153738	-0.3124211123	-0.0005656353	 0.080196
H	 0.2482519923	-0.0900261408	-2.1638099799	 0.100196
H	 1.7535717792	-0.2220409046	-1.2629581885	 0.103021
H	-0.4140957037	-2.3598850008	-1.6113307226	 0.125891
H	 1.2645757456	-2.4502297731	-2.0931045293	 0.125172
H	 1.2737584791	-2.500028409	 2.0773184946	 0.113224
H	 1.6496048943	 0.0208231736	 1.4336372783	 0.11888
H	 0.0913582201	-0.3266360741	 2.1390709097	 0.115912
