17
gdb 75731	2.59871	1.60668	1.00521	2.6492	80.44	-0.2508	-0.071	0.1798	1155.8405	0.136257	-418.079857	-418.070873	-418.069929	-418.113805	31.951	
C	-0.0209187453	 1.4355975635	-0.0144055583	-0.340108
N	 0.0058927232	-0.0114587602	-0.0274575467	-0.13162
C	 0.041619512	-0.7961443662	-1.1784850759	 0.363816
N	 0.0546885773	-0.2878213819	-2.3469341459	-0.531444
C	 0.0578603829	-2.2053470836	-0.7155870222	-0.30648
C	 0.0328338831	-2.2356159568	 0.6225048195	 0.211383
C	 0.0346566741	-3.3715914354	 1.5832058214	-0.487085
C	-0.0018797048	-0.8082534302	 1.1089196954	 0.360249
O	-0.0308472535	-0.4219562017	 2.2564177953	-0.366696
H	 0.8676081266	 1.843294777	-0.5043669412	 0.143225
H	-0.9048377781	 1.8107943452	-0.5375632478	 0.143201
H	-0.0462320355	 1.7497254529	 1.0300019534	 0.157507
H	 0.081109148	-1.0250428637	-3.0510777056	 0.226615
H	 0.0858900971	-3.0415528975	-1.4019219256	 0.122698
H	 0.0620476534	-4.3350016547	 1.0696159987	 0.128587
H	 0.8964607024	-3.3023873247	 2.2560031066	 0.153079
H	-0.8546241229	-3.3340320119	 2.221900949	 0.153075
