18
gdb 76452	2.13241	1.33227	1.21098	3.1663	78.87	-0.2715	-0.048	0.2235	1161.2047	0.145434	-401.96962	-401.959974	-401.95903	-402.003683	34.784	
C	-0.1910431875	 1.5037700202	 0.2245066105	-0.430254
C	-0.0006530731	 0.0230804111	-0.0110993923	-0.048029
C	 0.73786837	-0.555629736	-1.1608011546	-0.048033
C	 1.3982398409	 0.2584167357	-2.2495771816	-0.430253
C	 1.3669296441	-0.6811649384	 0.2641549917	 0.024387
C	 2.5787222437	 0.1045869025	 0.6469533169	 0.105134
O	 2.8461983568	 1.216790138	 0.258834785	-0.26954
C	 1.3016139199	-1.9816526948	 0.8768121162	 0.224767
N	 1.2566352614	-3.0259748352	 1.3735901456	-0.337632
H	 0.6895299948	 2.0852873464	-0.0438174678	 0.163964
H	-1.0410113863	 1.8558682785	-0.369921602	 0.129448
H	-0.4183204962	 1.6971087286	 1.2771321336	 0.132565
H	-0.8253279578	-0.5859533199	 0.3492052788	 0.124172
H	 0.3631515923	-1.517248471	-1.5009582965	 0.12417
H	 1.8614321283	 1.1669913054	-1.8681058663	 0.163972
H	 2.1703145965	-0.3313462357	-2.7527032595	 0.132563
H	 0.6475968908	 0.5327146987	-2.9986160127	 0.129443
H	 3.2495732314	-0.4328013939	 1.3484699848	 0.109157
