13
gdb 1424	6.56078	1.38159	1.19923	2.3722	52.52	-0.2745	-0.0483	0.2262	924.2222	0.098321	-381.619786	-381.611962	-381.611018	-381.652734	25.598	
C	-0.0769359086	 1.5066670523	-0.1421308963	-0.393898
C	 0.0970290215	 0.0039009282	 0.0209005622	 0.018701
O	 0.75178439	-0.3165934329	 1.2552556234	-0.190561
C	 2.0472895354	-0.6967744598	 1.2136116005	 0.176081
O	 2.6763749681	-0.9504022373	 2.1931252089	-0.263155
C	-1.2294351037	-0.7551004758	 0.0209658581	 0.150812
O	-2.1913090084	-0.4098123106	-0.6095242721	-0.230816
H	 0.8899416242	 1.997543803	-0.2769880601	 0.128208
H	-0.707287052	 1.702959026	-1.0121676598	 0.152429
H	-0.5639479071	 1.9268881208	 0.7414761621	 0.146892
H	 0.6866884594	-0.4053781358	-0.8163271096	 0.116832
H	 2.4426429882	-0.7478017498	 0.1793655902	 0.082963
H	-1.220018637	-1.6708048084	 0.6505082426	 0.105511
