23
gdb 97554	3.22315	0.66171	0.64857	1.2763	92.16	-0.2398	0.0371	0.277	1900.7911	0.202011	-388.263928	-388.25204	-388.251096	-388.303481	41.918	
C	 0.0279392579	 1.4829486173	 0.2455062114	-0.40682
C	 0.1049089822	-0.0281258265	 0.0030807523	-0.170155
C	 0.7061634614	-0.4754088257	-1.3633211115	 0.059171
C	-0.1353100737	 0.0605415224	-2.5447584834	-0.402178
C	 2.1700907625	 0.0017758337	-1.5103665713	-0.400542
C	 0.6918911743	-1.943811953	-1.3979975735	 0.105913
C	 0.6885563175	-3.1480901471	-1.4194157772	 0.064545
C	 0.6610451586	-4.6048376579	-1.4463598803	-0.216914
O	 1.986867162	-5.1092258519	-1.5732751106	-0.409715
H	 1.0150341202	 1.954540464	 0.2256753018	 0.119539
H	-0.6005915514	 1.9880923949	-0.4940918349	 0.118626
H	-0.4067402882	 1.6803525579	 1.2304902983	 0.114505
H	 0.699477352	-0.4932311654	 0.7977339084	 0.103313
H	-0.8999788795	-0.4589176967	 0.0839350888	 0.09988
H	-0.1023135298	 1.1533957098	-2.5832289317	 0.112815
H	 0.2503180914	-0.3230824156	-3.4933406582	 0.121281
H	-1.1803495991	-0.2506610161	-2.454132085	 0.116443
H	 2.7819514061	-0.3512783083	-0.6752720871	 0.121644
H	 2.6071687708	-0.3847047454	-2.4350466876	 0.123817
H	 2.2210916346	 1.0941477059	-1.5416138645	 0.111949
H	 0.1837834902	-4.974575286	-0.523726788	 0.112656
H	 0.0285776376	-4.9390919149	-2.285413335	 0.112716
H	 1.9261066426	-6.0699048054	-1.5866422311	 0.287511
