17
gdb 102458	2.28109	1.08653	0.89058	1.7505	66.53	-0.2554	-0.1042	0.1512	1326.4064	0.133157	-496.101664	-496.09174	-496.090796	-496.137875	34.225	
O	 0.3564324592	 1.0856315433	 0.0654681686	-0.422174
C	 0.0809224276	-0.2844975333	-0.0747635747	-0.056598
C	-1.4485835691	-0.5862863819	-0.06179655	-0.167208
C	-2.1456179	-0.0241732133	-1.3105960537	-0.081957
O	-1.9594077947	 1.3836456793	-1.4616636181	-0.419315
C	-1.6492800291	-2.0791406908	 0.0258541186	 0.276765
O	-1.7821683829	-2.8135373413	-0.9286225791	-0.288002
C	-1.66178158	-2.7183269702	 1.4236546882	 0.095124
O	-1.6105105855	-2.0888781925	 2.4467435933	-0.21568
H	-0.1516459907	 1.5360491098	-0.6242910151	 0.289112
H	 0.5038410778	-0.7027407391	-1.0034990761	 0.100801
H	 0.5644825457	-0.7900565435	 0.7674776093	 0.120534
H	-1.8473784336	-0.1321501309	 0.8530901822	 0.109949
H	-1.7163642573	-0.4813332497	-2.2054042439	 0.140628
H	-3.2145937186	-0.2751633578	-1.2987205779	 0.109999
H	-2.4578540537	 1.827776985	-0.7668714973	 0.294944
H	-1.7404029051	-3.8252088731	 1.3846877757	 0.113077
