21
gdb 109978	2.13281	1.24541	0.90014	4.4875	84.72	-0.2376	0.0185	0.2561	1372.3957	0.181724	-383.271753	-383.261947	-383.261003	-383.306798	35.742	
C	 1.0142887307	 0.137889304	 1.1611121845	-0.389998
C	-0.0263262845	 0.0287545874	 0.049300711	-0.133419
N	 0.5681569462	-0.2383136161	-1.2507996734	-0.077761
C	 1.3039113556	 0.8287918462	-1.9809399188	 0.075402
C	 2.8186363105	 0.8026231066	-1.8696475264	-0.404959
C	 0.6589263157	 0.3223201044	-3.2964460063	-0.274407
C	-0.3587033636	-0.4127451181	-2.3832734829	-0.110804
C	-0.7186820851	-1.7960408461	-2.6959832805	 0.291824
N	-1.0044678249	-2.8862429648	-2.9523544796	-0.327725
H	 1.6329970133	-0.7628481933	 1.1988944638	 0.131926
H	 1.6725046452	 0.9993338747	 1.0128708992	 0.12099
H	 0.5202721748	 0.2638185923	 2.129162506	 0.119277
H	-0.7079486159	-0.8024878107	 0.2669018272	 0.116634
H	-0.6444029452	 0.9483138295	 0.0247473588	 0.077032
H	 0.9184763126	 1.8304732837	-1.7227526737	 0.063868
H	 3.1987107995	-0.1973169258	-2.0981357298	 0.127796
H	 3.2621037817	 1.5153309011	-2.5739446965	 0.118026
H	 3.1547763759	 1.0734907313	-0.8644718177	 0.123845
H	 0.2464509229	 1.0627400811	-3.980562989	 0.119836
H	 1.3035254747	-0.3697193121	-3.8402542055	 0.13006
H	-1.2886231303	 0.1701481949	-2.2761345003	 0.102558
