17
gdb 52083	2.87723	1.09154	0.8998	5.6035	71.28	-0.265	-0.0343	0.2307	1295.2573	0.133574	-458.982262	-458.973119	-458.972175	-459.01727	32.049	
O	 0.2670169624	 0.0391679443	-0.2088196985	-0.276566
C	 0.4663854141	 1.1113691565	 0.2752825118	 0.175007
O	 0.6774882489	 2.2118650827	-0.4831339091	-0.188982
C	 0.9181348452	 3.4570781401	 0.1817337778	-0.17849
C	 2.3633175565	 3.8684393527	 0.0413706171	 0.251796
C	 2.8812997111	 4.304447399	-1.3239296597	-0.289986
C	 2.7015679866	 5.3288308768	-0.2608224669	-0.313857
C	 3.3251616945	 3.1527652651	 0.9143659179	 0.117426
O	 3.0144323404	 2.3193750929	 1.7309022651	-0.271806
H	 0.4979893755	 1.3228017081	 1.3580367205	 0.099298
H	 0.260405887	 4.1929942825	-0.289250593	 0.117508
H	 0.6512842764	 3.3759434376	 1.2415727788	 0.12958
H	 3.8893869272	 4.0069460585	-1.5921514587	 0.134875
H	 2.1673936928	 4.2559379109	-2.1377332271	 0.146421
H	 1.8625093336	 6.012596004	-0.3243374231	 0.135963
H	 3.5826132594	 5.7441996812	 0.2166255011	 0.133519
H	 4.3896414683	 3.4486094969	 0.7680643161	 0.078293
