18
gdb 75712	2.26393	1.75502	1.36433	2.4917	71.58	-0.241	-0.0143	0.2267	1018.5281	0.146934	-439.074301	-439.065727	-439.064783	-439.107259	32.222	
C	-0.1198124262	 1.5563052656	 0.0107457404	-0.482197
C	-0.0053912567	 0.0528064154	-0.0593920466	 0.343047
C	-1.2651763688	-0.7954802689	 0.2748982443	-0.300611
C	-0.519989403	-1.3177729111	 1.5374847823	-0.181951
N	 0.747871399	-0.6559453273	 1.0679057831	-0.177948
C	 1.4629568829	-1.4121641644	 0.1178675154	 0.344854
O	 2.0146641279	-2.4764194652	 0.1929624519	-0.341319
C	 1.000155593	-0.5605142215	-1.0837421992	-0.050492
O	 0.4946410368	-1.3177406694	-2.1506624914	-0.431442
H	 0.868320649	 2.0267894969	-0.0049604568	 0.127301
H	-0.6924357855	 1.9318481878	-0.8447079204	 0.131249
H	-0.630868888	 1.8721874637	 0.9258586471	 0.124803
H	-2.1763430173	-0.2230723139	 0.4570989692	 0.111458
H	-1.46500528	-1.5626627888	-0.4762000102	 0.128613
H	-0.8619366519	-0.8847241069	 2.4796936682	 0.120716
H	-0.4147559159	-2.3987223008	 1.6524484186	 0.135036
H	 1.7242485155	 0.1891064672	-1.4328770176	 0.096552
H	 0.9304183489	-2.1787845981	-2.1149844381	 0.302332
