12
gdb 24759	3.69485	1.32063	0.97289	2.1276	68.18	-0.2694	-0.1055	0.164	1086.6747	0.079096	-431.719798	-431.71264	-431.711696	-431.752055	25.424	
O	 0.0563833678	-0.0688346891	 0.0026133263	-0.292515
C	-0.0111308851	 1.1320277107	 0.0072790158	 0.384172
C	 1.1924148998	 1.9765816427	 0.0011362604	 0.235351
N	 2.1630390886	 2.6029373932	-0.0039764627	-0.308491
N	-1.2016470918	 1.8475273354	 0.0181908022	-0.114206
C	-2.4767083822	 1.2830820404	 0.0254938577	-0.090967
C	-3.3326011385	 2.3370798609	 0.035127213	-0.08642
N	-2.6413339142	 3.5460816839	 0.0341298453	-0.261442
C	-1.3840718584	 3.2311684473	 0.0240692251	 0.044367
H	-2.6057876227	 0.2153318138	 0.0229023882	 0.173426
H	-4.4111817656	 2.3152292626	 0.0428108429	 0.138153
H	-0.5459053576	 3.9112934783	 0.0202850657	 0.178571
