20
gdb 14096	2.95646	1.68423	1.47045	1.182	75.25	-0.2469	0.0792	0.3261	982.3041	0.176188	-348.977461	-348.968927	-348.967982	-349.010599	32.402	
C	-0.2664863278	 1.4672383671	 0.0586310073	-0.394988
C	 0.0421819659	-0.0226717361	-0.03837988	-0.043818
C	 1.2896639406	-0.3877875977	-0.9079292375	-0.221315
C	 2.0755757676	-0.784192271	 0.3777480154	-0.305993
C	 0.7717752483	-0.6412286845	 1.1698673378	 0.359162
C	 0.5833182908	-0.3263386465	 2.6333195941	-0.401708
C	 0.1772941712	-1.6701042185	 2.0749467334	 0.040903
O	-1.178734197	-1.9559848289	 1.8831600954	-0.420853
H	 0.6230315834	 2.0423025745	 0.3401667557	 0.109605
H	-0.6257010123	 1.853388497	-0.9018918688	 0.109877
H	-1.0413832991	 1.6651647534	 0.8070973293	 0.112337
H	-0.8646526558	-0.5699696913	-0.3099987594	 0.085102
H	 1.1130051808	-1.2295409199	-1.5813346523	 0.101581
H	 1.7128373966	 0.4359622241	-1.4889107085	 0.092935
H	 2.5350320201	-1.7770283776	 0.3798245721	 0.096193
H	 2.8390417176	-0.0531153661	 0.6614154836	 0.098595
H	 1.4591094671	-0.270748373	 3.273429626	 0.106478
H	-0.2184482534	 0.3576903882	 2.895822642	 0.110203
H	 0.795488049	-2.5328279068	 2.3303922255	 0.078563
H	-1.5832612737	-2.0774777565	 2.7483249188	 0.287142
