20
gdb 74898	2.74735	1.48444	1.0556	1.3902	88.	-0.2172	-0.0163	0.2009	1179.0261	0.173003	-366.002667	-365.99462	-365.993676	-366.034915	32.062	
C	 0.0302466537	 1.5026130257	-0.194270004	-0.476949
C	-0.0271665232	 0.0014441174	-0.0268867113	 0.28441
C	-1.2003493299	-0.6500510195	-0.1080502301	-0.149141
C	-1.4376969795	-2.0932116598	 0.1525679028	-0.070329
N	-1.7431491128	-2.9809295603	-1.0016491087	-0.343452
C	-0.4918294616	-3.1610280788	-0.2424058274	-0.023765
C	 0.7906314288	-2.7899949681	-0.9693806256	-0.27665
C	 1.6630776199	-1.8535370255	-0.1735043965	-0.075458
C	 1.2732104572	-0.6384127638	 0.2328748297	-0.113824
H	 0.6770800135	 1.7831480692	-1.0343791688	 0.128389
H	-0.9610204584	 1.9281340822	-0.3683893906	 0.12069
H	 0.4546028637	 1.9783334387	 0.6990865086	 0.123214
H	-2.0982415324	-0.0652198634	-0.3036973212	 0.08152
H	-2.0270600241	-2.279686285	 1.0517414072	 0.087535
H	-2.4268611466	-3.6769869987	-0.7149294425	 0.227091
H	-0.4237150417	-4.0213094988	 0.4205068811	 0.079809
H	 1.3428841797	-3.6927589078	-1.2485672032	 0.095962
H	 0.4879102123	-2.2985366537	-1.9023595057	 0.13148
H	 2.6729105412	-2.1793343065	 0.0625269612	 0.089008
H	 1.9977833001	-0.0155770534	 0.756044125	 0.080461
