21
gdb 93109	2.36591	1.59377	1.32849	1.5194	82.84	-0.2438	0.0221	0.266	1083.7331	0.1839	-387.09298	-387.084648	-387.083704	-387.125428	33.533	
O	 0.0601837832	 1.3874771186	-0.100201348	-0.447309
C	 0.0009561412	-0.0348895627	-0.0106426862	 0.037246
C	 0.7251195653	-0.5418813176	 1.2460946702	-0.273645
C	-0.1009630274	-0.3050880659	 2.4874173169	-0.076707
C	-1.4172556195	-0.0889226475	 2.4594457622	-0.047052
C	-2.231396623	-0.0618502064	 1.1899294848	-0.35502
C	-1.4349635638	-0.5391470838	-0.0162156492	 0.400112
C	-2.1387444439	-0.7137822991	-1.3314448206	-0.331859
C	-1.6767997966	-1.9274018638	-0.5586521971	-0.310346
H	-0.189660919	 1.7382540306	 0.7621063098	 0.281977
H	 0.5179781241	-0.3952196154	-0.9069083824	 0.075093
H	 0.9478473641	-1.6128412272	 1.1418497866	 0.112144
H	 1.6931887126	-0.0334334903	 1.3265835312	 0.106961
H	 0.4219223063	-0.3133722937	 3.4407550265	 0.087087
H	-1.9544580289	 0.0932195885	 3.3874624589	 0.086209
H	-3.1356535532	-0.6717175629	 1.3124387052	 0.105414
H	-2.5970536361	 0.9619958296	 1.0147414975	 0.112466
H	-3.2042877093	-0.5104691516	-1.3704169222	 0.106952
H	-1.6035482005	-0.4452994908	-2.2363546223	 0.115035
H	-0.8287216186	-2.4853311823	-0.9442372908	 0.107431
H	-2.4250767369	-2.5447206964	-0.0724246712	 0.10781
