21
gdb 104147	3.16564	1.06324	1.01787	2.9485	81.59	-0.2301	0.0157	0.2457	1311.009	0.180909	-424.240563	-424.230841	-424.229897	-424.274906	36.396	
C	 0.0960189032	 1.4588261721	-0.0997442378	-0.493169
C	-0.0051089935	-0.0303720114	-0.0379548687	 0.300942
C	-1.051261022	-0.7910586339	 0.2735626748	-0.2575
C	-0.7054901077	-2.2537402488	 0.1977387952	 0.317849
C	-0.89318184	-3.0086614183	 1.5165695625	-0.41253
C	-1.425693119	-2.9731440493	-0.9625971304	-0.065728
O	-0.8794232577	-4.2571465202	-1.185530796	-0.423853
O	 0.7053016364	-2.2555251564	-0.1396239193	-0.32251
C	 1.1683982237	-0.9263152062	-0.3485495035	-0.166257
H	 0.8591723594	 1.8335325504	 0.5939611836	 0.131546
H	 0.3929381335	 1.7946366779	-1.101309051	 0.131392
H	-0.8546052758	 1.9361216955	 0.150386584	 0.130734
H	-2.0398276342	-0.4396502943	 0.5441949227	 0.098048
H	-1.9413364953	-2.9734742518	 1.8321076214	 0.1095
H	-0.6104060974	-4.056006435	 1.387528265	 0.134086
H	-0.2772874556	-2.5624341631	 2.301102776	 0.114026
H	-2.4874918399	-3.1102750501	-0.7297455933	 0.099858
H	-1.354045547	-2.342565724	-1.8626213129	 0.079727
H	 0.074296865	-4.1182892937	-1.2495725166	 0.288321
H	 1.5194606354	-0.7980552253	-1.3859562661	 0.101008
H	 2.0310623984	-0.7263258039	 0.3066998106	 0.104509
