18
gdb 69106	2.54271	1.5803	1.19945	3.8224	76.51	-0.2542	0.0228	0.2771	1067.8934	0.148385	-401.968525	-401.960203	-401.959259	-402.00121	32.029	
O	 0.0944041838	 1.3925645825	-0.0900753663	-0.46497
C	 0.0158468353	 0.0201596799	 0.0732892712	 0.4095
C	-0.3100572631	-0.9026491366	-1.0586909798	-0.394642
C	-1.307184621	-0.769096823	 0.1060214084	 0.124625
C	-1.2219334623	-1.8012944327	 1.2269982597	-0.27769
C	 0.2905380684	-1.8968412126	 1.5442268123	-0.241016
C	 0.8770266873	-0.5110110221	 1.2034873165	-0.251867
C	-2.532012057	-0.0818432095	-0.1595235578	 0.190459
N	-3.49474698	 0.5222009041	-0.3845917817	-0.355877
H	-0.6209165275	 1.6934198026	-0.6626877911	 0.297269
H	-0.6170985758	-0.4405840314	-1.9909481791	 0.133519
H	 0.2126293858	-1.8459346564	-1.1803041373	 0.127377
H	-1.7796272201	-1.4289628804	 2.0926119093	 0.124327
H	-1.6531045679	-2.7679763901	 0.9493590844	 0.115128
H	 0.4717216232	-2.1777458029	 2.5839507335	 0.113902
H	 0.7571222417	-2.6694780584	 0.9254806407	 0.113329
H	 1.9371111792	-0.5540402704	 0.9358494254	 0.114137
H	 0.77608879	 0.1824822475	 2.0451773619	 0.12249
