23
gdb 95254	2.53716	1.69256	1.32291	0.2392	87.9	-0.2426	0.0828	0.3253	1089.2508	0.209475	-351.147351	-351.139677	-351.138732	-351.179032	32.261	
C	-0.0598815401	 1.5685415679	-0.0063559298	-0.39348
C	 0.0186045659	 0.0364555886	-0.0116827002	 0.01488
C	 0.4864881788	-0.4938622011	-1.3828025438	-0.205854
C	 0.9654285442	-1.9539652199	-1.3463544371	-0.222731
C	 1.976280168	-2.180512245	-0.2182303915	-0.007786
C	 3.047921308	-1.0537538797	-0.0054793243	-0.248275
C	 2.3409086483	-0.6479803753	 1.289972417	-0.072113
C	 1.4195952992	-1.869288729	 1.1893745255	-0.104364
C	 0.8374427238	-0.4904957167	 1.162400704	 0.002335
H	 0.9352625379	 2.0100414007	-0.1319861219	 0.114886
H	-0.6951645689	 1.9360662477	-0.8199490056	 0.105989
H	-0.4733854702	 1.9446497422	 0.9358204836	 0.105801
H	-0.9999074101	-0.3483918374	 0.1521994375	 0.067942
H	-0.3296055879	-0.3820668355	-2.106000616	 0.086289
H	 1.30024082	 0.139558253	-1.7550185407	 0.09813
H	 0.1120713199	-2.629824211	-1.1975596107	 0.091266
H	 1.4067610613	-2.2163966603	-2.3156950233	 0.088295
H	 2.4273169141	-3.1723829317	-0.2921114397	 0.065233
H	 4.0273698655	-1.4903975242	 0.2076982762	 0.096538
H	 3.1757834701	-0.2983626028	-0.7860571751	 0.090245
H	 2.849215265	-0.2671472079	 2.1689432005	 0.076658
H	 1.1683843594	-2.6076188059	 1.9419161184	 0.074269
H	 0.4083100476	-0.2001001266	 2.1210854569	 0.075846
