16
gdb 55309	2.59587	1.51275	1.09646	3.488	64.81	-0.2446	0.0223	0.2669	1084.7111	0.123356	-475.008054	-474.999651	-474.998706	-475.041598	30.826	
N	 0.7570931175	-0.0122942848	-0.5190177639	-0.517427
C	-0.3415226021	 0.6172730814	-0.0412403971	 0.359773
O	-0.3960061311	 1.7853299177	 0.2969033805	-0.372038
C	-1.5693147152	-0.2794497821	 0.0766329786	-0.042271
O	-1.3297516934	-1.6772711619	-0.2259712638	-0.308731
C	-1.7438376446	-2.1063466644	 1.0984175858	-0.155047
C	-1.9825702581	-0.6549232169	 1.5023720916	 0.362835
C	-1.8458489551	 0.0750047266	 2.7573658263	-0.254616
O	-3.1306528812	-0.1797716995	 2.1507387949	-0.2569
H	 1.6112288627	 0.5047493744	-0.6427811153	 0.264769
H	 0.6996033474	-0.9864409551	-0.7665508547	 0.274764
H	-2.3817046975	 0.1461215463	-0.523235518	 0.127464
H	-2.651222023	-2.7193437167	 1.0651972501	 0.127087
H	-0.9478687396	-2.6454377603	 1.6243448054	 0.117009
H	-1.656013667	-0.4679393915	 3.6817411468	 0.119479
H	-1.5155406997	 1.1102961569	 2.7251323328	 0.15385
