17
gdb 79283	2.9513	1.64419	1.48423	2.2667	70.88	-0.2337	-0.0069	0.2268	933.781	0.138527	-421.850182	-421.843351	-421.842407	-421.88117	27.932	
O	-0.0619463209	 1.4455564527	 0.0419518103	-0.439463
C	 0.0241553473	 0.0355341861	-0.0165867394	 0.122386
C	-1.3677335529	-0.5459859982	-0.2327509404	-0.062929
C	-1.588733687	-0.6349269913	-1.7127670667	-0.055293
C	-0.3289480666	-0.0951335338	-2.3968401127	-0.228668
C	 0.6780081337	-0.5389990812	-1.3104489894	-0.216495
C	 0.2903982412	-2.0224735856	-1.1442227858	 0.439908
O	 0.9883765247	-3.0010784502	-1.1525128682	-0.346857
C	-1.1891683816	-1.8936103935	-0.9416635957	-0.188283
H	 0.8154731159	 1.7928826355	 0.2319735073	 0.286425
H	 0.5072634584	-0.366623928	 0.8853249451	 0.078828
H	-2.1709333348	-0.387884228	 0.4740455568	 0.102556
H	-2.575110973	-0.5513310681	-2.1486624642	 0.098166
H	-0.1311071465	-0.563575908	-3.3657542908	 0.107347
H	-0.3578953852	 0.9905774856	-2.5152904201	 0.117251
H	 1.7356750945	-0.3435676039	-1.4697818875	 0.078351
H	-1.8477328574	-2.73543049	-0.7840007785	 0.106772
