13
gdb 2023	7.89837	1.90648	1.77464	4.036	54.55	-0.2756	0.0098	0.2854	708.1423	0.101585	-344.463502	-344.457523	-344.456579	-344.493247	22.537	
O	 0.1125909437	 0.1584900424	-0.6045923	-0.312837
C	-0.0373250144	 1.2054422865	-0.0651811255	 0.442151
C	-1.1828616219	 2.1641312554	 0.2775419258	-0.49633
C	-0.0644573049	 2.9925374419	 0.8899834465	 0.456632
C	 0.24477674	 4.4446985851	 0.8413713088	-0.329254
C	 0.0445541968	 3.7284664694	 2.1757850356	-0.329256
O	 0.9274325436	 2.0026084987	 0.5074855938	-0.257096
H	-1.6853540453	 2.5897497334	-0.5930913569	 0.147498
H	-1.9197226265	 1.7512532359	 0.969076512	 0.147502
H	 1.2575219565	 4.7282205346	 0.5773070712	 0.139016
H	-0.5252314946	 5.1253404816	 0.4938902087	 0.126479
H	-0.8622125068	 3.9198992589	 2.739750744	 0.126479
H	 0.9271983737	 3.5465918963	 2.7788012761	 0.139016
