13
gdb 5443	3.6654	1.96552	1.28334	4.4709	70.03	-0.1947	0.0181	0.2128	879.4269	0.096821	-357.647094	-357.639836	-357.638892	-357.678279	27.348	
N	 0.0829638688	 1.3926655779	 0.153167627	-0.617663
C	 0.0011257476	 0.0073615315	 0.0319339611	 0.21982
C	-1.0787712006	-0.8573641128	-0.0031420794	 0.121027
N	-0.6297338438	-2.1738041463	-0.0319943845	-0.30975
C	 0.6712201693	-2.0994460615	-0.0239319572	-0.012507
N	 1.1120525822	-0.7957855159	 0.0166504351	-0.279003
C	-2.4368505159	-0.4708716208	-0.0033386413	 0.208935
C	-3.5803864589	-0.0879977861	-0.0064755461	-0.423854
H	 0.5821736461	 1.8370465795	-0.6107370066	 0.250305
H	-0.8480591541	 1.7899544982	 0.2099366254	 0.262183
H	 1.3573549775	-2.932130102	-0.0585617238	 0.129928
H	 2.0629414521	-0.4788970345	 0.1085003592	 0.268041
H	-4.5944155904	 0.2255247127	-0.004368769	 0.182537
