19
gdb 84999	2.26006	1.53451	0.96267	3.1834	80.77	-0.233	-0.0369	0.1961	1226.7567	0.157256	-423.078371	-423.068577	-423.067633	-423.113563	35.115	
C	 0.0331853074	 1.4733884834	 0.1641494101	-0.495715
C	 0.0299704035	-0.0088527764	-0.0078761662	 0.230881
C	 0.0072352514	-0.7258860066	-1.1470219029	 0.09409
C	-0.0560710545	-0.2709366507	-2.5695406708	-0.500647
C	 0.0364220637	-2.1754651012	-0.8321304581	 0.338652
O	-0.0687561037	-3.079992369	-1.6298960298	-0.330691
C	 0.215135588	-2.3192884784	 0.6822026437	-0.373697
C	 0.0359606828	-0.8921182666	 1.2276803284	 0.020097
O	 1.0751144726	-0.4465338374	 2.0936618435	-0.433185
H	 0.9127782526	 1.7767225941	 0.7415081766	 0.158238
H	 0.0338450919	 2.0054578431	-0.7890181955	 0.126909
H	-0.8419806807	 1.7973419899	 0.7420397022	 0.131742
H	 0.8961128071	-0.4578749174	-3.079483667	 0.141209
H	-0.8121751921	-0.8482566234	-3.1111561696	 0.146655
H	-0.2885971163	 0.7922834793	-2.6603196015	 0.120675
H	-0.4784037864	-3.0590425673	 1.0900561612	 0.120157
H	 1.2350021084	-2.6612126458	 0.8879645517	 0.136666
H	-0.9364757332	-0.7919218024	 1.7386787789	 0.079541
H	 0.9979933377	-0.9271013074	 2.9235704651	 0.288423
