17
gdb 43698	5.85107	0.64544	0.62281	3.1497	74.62	-0.2615	0.0197	0.2812	1711.6904	0.136005	-418.048325	-418.039438	-418.038493	-418.083076	31.658	
O	 0.1807628352	-0.02673448	-0.1469805555	-0.345243
C	 0.0370302443	 1.1575664365	-0.0299354145	 0.434048
C	-1.1564672035	 2.1363611167	 0.0886594112	-0.413718
C	-0.0880783051	 3.2695142706	 0.0505886439	 0.049825
C	-0.0319087158	 4.199534973	 1.256809734	-0.193227
C	 1.2229784635	 5.0955035925	 1.2440321601	-0.345377
C	 1.2695503432	 6.0114651514	 2.3811222127	 0.260436
N	 1.2886393659	 6.7301736821	 3.285558491	-0.297495
N	 0.9326507174	 2.2073024639	 0.0213780281	-0.331638
H	-1.8403801615	 2.1036778119	-0.7606406597	 0.139659
H	-1.7210399195	 2.0580658101	 1.0197767068	 0.136869
H	-0.1177752509	 3.8523267787	-0.8791217177	 0.089789
H	-0.9274984167	 4.8302913482	 1.2627820641	 0.129761
H	-0.0437023091	 3.6054651498	 2.1764620116	 0.129028
H	 2.1269804741	 4.4756089828	 1.2633280137	 0.152977
H	 1.2609925501	 5.6864000247	 0.3209015011	 0.153215
H	 1.9126874585	 2.2287008071	-0.2224216009	 0.251092
