18
gdb 53904	2.08615	1.39099	0.92444	2.8986	76.73	-0.2657	-0.0366	0.2291	1284.5281	0.145286	-401.968126	-401.958405	-401.957461	-402.004316	34.006	
C	-0.0791399636	 1.4799331667	-0.2109353823	-0.488435
C	-0.0331319913	 0.0492269214	 0.2766842374	 0.382299
O	 0.9294156678	-0.4406297005	 0.8062679837	-0.268717
C	-1.3342009554	-0.7935455957	 0.084472978	-0.284589
C	-1.7343460585	-0.7797635112	-1.326423791	 0.27955
N	-2.0269597432	-0.7674126132	-2.4448884437	-0.325555
C	-1.1911280979	-2.2057849742	 0.620936692	 0.054271
C	-1.5071656096	-2.4853652969	 2.0649695826	-0.271394
C	-2.4172357067	-3.0039733364	 0.979711772	-0.281948
H	 0.8591407495	 1.9793083727	 0.0310437844	 0.151547
H	-0.2462777866	 1.5040254614	-1.2926728453	 0.174789
H	-0.9161642519	 2.0153961838	 0.2512109367	 0.143409
H	-2.1243141305	-0.2691873326	 0.641950143	 0.135879
H	-0.3548746161	-2.7461348698	 0.1926648873	 0.114533
H	-0.8713803295	-3.18558307	 2.5936167001	 0.126928
H	-1.8642386471	-1.6642241612	 2.6782507863	 0.113186
H	-3.3874912068	-2.5332687046	 0.8597297092	 0.118971
H	-2.4122320727	-4.0651021398	 0.75952119	 0.125276
