19
gdb 118934	2.40319	1.33993	1.11963	2.9972	71.28	-0.2622	0.0071	0.2693	1174.7224	0.157629	-460.177297	-460.167719	-460.166775	-460.212042	33.943	
C	 0.2689217159	 0.7614358864	 0.4724398679	-0.259644
O	-0.4106549779	 0.2525972582	-0.6660162241	-0.231715
C	 0.3761139196	-0.5298516958	-1.5252154252	-0.122494
C	 0.5165537196	-2.0084951706	-1.1012938246	 0.059948
C	-0.8308133181	-2.6277106295	-0.7367095259	-0.443517
C	 1.4161391823	-2.8264611237	-2.0577541228	-0.119127
O	 2.4026999975	-3.0188194215	-0.9944865859	-0.240768
C	 1.644569371	-2.3125609064	-0.0980422667	 0.445711
O	 1.8961525116	-2.0966489592	 1.045715859	-0.330927
H	 0.597325491	-0.033062329	 1.1516216752	 0.150243
H	 1.1473011888	 1.3534334317	 0.1740908395	 0.10709
H	-0.437308355	 1.4154055987	 0.9890052	 0.126639
H	-0.1336987649	-0.5174486848	-2.4971104068	 0.112176
H	 1.3740681534	-0.0836722099	-1.6673504958	 0.095614
H	-1.516099775	-2.5760883723	-1.5895386033	 0.124075
H	-0.7228900691	-3.6761337061	-0.4437597045	 0.124992
H	-1.2852316715	-2.0787620212	 0.0900655439	 0.152707
H	 1.013617334	-3.7853422034	-2.3907280718	 0.126114
H	 1.8566583668	-2.2817668817	-2.8969329883	 0.122883
