17
gdb 64990	3.38006	1.08764	0.90504	3.6814	72.71	-0.2425	-0.0212	0.2213	1292.7885	0.134656	-455.154448	-455.145198	-455.144253	-455.189009	32.889	
C	-0.0469597683	 1.5093185125	-0.7155854622	-0.46332
C	-0.0784330565	 0.1570258616	-0.0508491591	 0.294794
C	 0.9281384544	-0.8760688639	-0.3612644153	-0.20594
O	 0.9879745004	-0.1459543619	 0.8686180626	-0.282789
C	-1.4639152604	-0.3181896243	 0.3777418635	 0.357285
O	-2.4450700239	-0.0534105357	-0.2732474034	-0.326829
N	-1.4261354881	-1.0547975331	 1.5496479535	-0.332333
C	-2.4662945089	-1.6846826445	 2.2264998276	 0.082315
N	-3.6577991567	-1.7530370388	 1.801986187	-0.397172
H	 0.9560330585	 1.7334584701	-1.0853197903	 0.124118
H	-0.7572320218	 1.5230738723	-1.5447478552	 0.158482
H	-0.3417794681	 2.2903834907	-0.008148294	 0.137159
H	 0.6733740647	-1.9301139613	-0.2668992305	 0.127774
H	 1.7160360552	-0.6446772049	-1.0756317374	 0.130932
H	-0.5123778914	-1.0769803452	 1.9824944104	 0.269308
H	-2.1005275408	-2.1121322973	 3.1691454332	 0.096439
H	-4.230154268	-2.2631746562	 2.4731866296	 0.229777
