17
gdb 75268	2.28572	1.73088	1.43157	1.2756	78.69	-0.2346	0.0005	0.235	1003.5566	0.135514	-380.82765	-380.819452	-380.818508	-380.860269	31.185	
C	 0.0124730575	 1.4559528444	 0.0225768395	-0.470795
C	-0.0206293421	-0.0322638728	-0.0477629902	 0.34063
N	-0.0554529772	-0.7172705014	-1.1199321759	-0.24246
C	-0.0349945719	-2.1393480074	-0.7506088482	-0.200334
C	 0.0444101791	-2.1534845858	 0.7751600143	-0.050946
C	 1.2295558408	-1.5247320071	 1.4388917292	-0.225014
C	 2.4354579026	-1.233443345	 0.7215382059	 0.375726
C	 3.4665677522	-1.0002824564	 0.1478248717	-0.466271
N	-0.0410566456	-0.7487982269	 1.2084017383	-0.173271
H	 0.9353105457	 1.7837815705	 0.5145487899	 0.143501
H	-0.0336087505	 1.8820619869	-0.9796397171	 0.145106
H	-0.8223852778	 1.8271338395	 0.6252267245	 0.142592
H	-0.9491930567	-2.6309539902	-1.1018747449	 0.11876
H	 0.8119090642	-2.6348403071	-1.2389099918	 0.12739
H	-0.5359655613	-2.8741658335	 1.342523331	 0.105069
H	 1.3758429051	-1.7431916412	 2.493685709	 0.124082
H	 4.3731378259	-0.7933924864	-0.3653878453	 0.206235
