15
gdb 76295	2.48321	1.55057	1.13371	1.8488	61.52	-0.2486	-0.0558	0.1927	1047.4724	0.110282	-494.928284	-494.919586	-494.918642	-494.962198	31.455	
O	-0.2420514132	 1.4295641098	-0.3410175451	-0.438651
C	-0.024561568	 0.0689890772	 0.0294704437	-0.024578
C	-1.4201862946	-0.5760808847	 0.0337300699	 0.033879
O	-2.4107164498	 0.1225554807	 0.7169026954	-0.418315
C	-1.6783497645	-0.7919488035	-1.4758829634	 0.347643
O	-2.7268308116	-0.6233282669	-2.0339153897	-0.292075
C	-0.3406796518	-1.1623332691	-2.1155869784	-0.440168
C	 0.7073338109	-0.6015597368	-1.1530060436	 0.378874
O	 1.9008651951	-0.6099627641	-1.3007884813	-0.305048
H	 0.6146852666	 1.8660177849	-0.4069270005	 0.306381
H	 0.5236409643	-0.0208444937	 0.972927286	 0.097359
H	-1.340861986	-1.5688548662	 0.4991934954	 0.121686
H	-2.4685613874	 0.9983643662	 0.3164403869	 0.300587
H	-0.2294880088	-2.2535866035	-2.1612377284	 0.165607
H	-0.2375099812	-0.7856200904	-3.135889357	 0.166818
