16
gdb 42196	3.09847	1.37165	1.06319	2.5924	77.21	-0.2487	-0.0623	0.1864	1119.0596	0.123089	-400.677685	-400.669457	-400.668513	-400.71087	30.628	
O	 0.1703203017	 0.4680718009	 1.2188020775	-0.296082
C	 0.038246017	 1.3286582899	 0.3706861426	 0.166981
C	 1.1655656222	 1.8189729185	-0.405190919	 0.267726
C	 2.1082594289	 2.2144689419	-1.0402181752	-0.442243
C	-1.2849730525	 1.9320543838	 0.0812065288	 0.254668
C	-1.6650768599	 2.5411675134	-1.2220914868	-0.284344
N	-1.4829710982	 3.4535461203	-0.0996669363	-0.15449
C	-2.7280697289	 3.3179330552	 0.7474448958	-0.151049
C	-2.4911592861	 1.8075522451	 1.0031934473	-0.318145
H	 2.9486529202	 2.560935295	-1.5914891672	 0.216419
H	-0.8884144259	 2.6302565365	-1.9743739779	 0.138576
H	-2.6664648797	 2.3508105149	-1.606032903	 0.117901
H	-2.6357814525	 3.9405207903	 1.6381675399	 0.123236
H	-3.6384443844	 3.5944480102	 0.2062445499	 0.111476
H	-3.2678106602	 1.104715133	 0.6916668608	 0.11143
H	-2.2010121616	 1.5830028809	 2.0295112528	 0.137941
