18
gdb 41286	2.9075	2.08534	1.8398	2.7365	74.53	-0.2336	0.0672	0.3008	838.7503	0.150939	-401.848457	-401.842452	-401.841508	-401.878321	26.491	
C	 0.0886810121	 1.5125807008	-0.1454908283	-0.173471
O	 1.5464001571	 1.51848428	 0.0338523275	-0.345676
C	 1.5172379419	 0.2078685125	 0.5947961637	 0.430161
C	 1.7812248337	-0.3112441078	 1.9931995435	-0.308412
C	 0.9951858938	-1.543664629	 1.4381916069	-0.069062
C	-0.4460729571	-0.9572249066	 1.2611350067	-0.300386
C	 0.0390273653	 0.0125735838	 0.1749190644	 0.195734
N	 0.505768519	-0.8598096863	-0.9533516132	-0.339438
C	 1.5973433221	-1.2032359975	-0.0437560397	-0.075731
H	-0.3967491144	 2.169059089	 0.5869061721	 0.104513
H	-0.1913839504	 1.7933495292	-1.1634118667	 0.118945
H	 2.8372161702	-0.5368702615	 2.1681495835	 0.105315
H	 1.3590601424	 0.215614311	 2.8538436806	 0.09809
H	 1.1247375309	-2.530068351	 1.8792405652	 0.072863
H	-1.1992404784	-1.6713003083	 0.9153065709	 0.093853
H	-0.8043644828	-0.4825926443	 2.1782101842	 0.10782
H	-0.1321342099	-1.6233292054	-1.1761633675	 0.208209
H	 2.4678420344	-1.7623940688	-0.3920221238	 0.076673
