25
gdb 68403	2.08159	1.75832	1.47672	0.0767	91.46	-0.2796	0.0787	0.3583	1106.1638	0.229896	-352.362165	-352.353139	-352.352195	-352.394622	37.496	
C	 0.0097639498	 1.5241436942	 0.0322332976	-0.51054
C	 0.0284583039	 0.0106935499	 0.0313074946	 0.340062
C	 0.9169939685	-0.7965265132	-0.9733450238	-0.270982
C	 0.7388922227	-1.926931275	 0.0730435923	-0.015044
C	 0.7851565027	-0.7994105027	 1.1365448707	-0.270981
C	-0.7700186641	-2.221338408	-0.0216633156	-0.261017
C	-1.3398215535	-0.753491178	-0.0551948688	 0.314466
C	-2.2727232326	-0.4609018581	 1.1313493307	-0.452777
C	-2.1179552986	-0.457442813	-1.3477378014	-0.452788
H	 1.0259920097	 1.9271831235	 0.096029656	 0.11048
H	-0.4454590201	 1.9223538971	-0.8815294791	 0.115628
H	-0.555292768	 1.9198958466	 0.8836168719	 0.11563
H	 0.555438391	-0.9637664669	-1.9911492455	 0.084811
H	 1.9399403866	-0.4116704837	-1.0068697577	 0.088704
H	 1.4119508673	-2.7842200226	 0.1139255227	 0.052724
H	 1.7959068779	-0.4148206959	 1.2981999491	 0.088703
H	 0.2997340529	-0.9693523853	 2.1009638409	 0.084813
H	-1.0268798818	-2.7852887073	-0.9244017249	 0.088609
H	-1.137164889	-2.7877784788	 0.840486753	 0.088607
H	-1.7943170337	-0.6361868335	 2.0984939684	 0.111317
H	-2.624716724	 0.5766663701	 1.1153514402	 0.109385
H	-3.1582501407	-1.1045582524	 1.0841182136	 0.109744
H	-3.0023013561	-1.1011612226	-1.4128515985	 0.109745
H	-2.4694964881	 0.5801016948	-1.3727050345	 0.109385
H	-1.5229142824	-0.6300043991	-2.248355692	 0.111316
