21
gdb 63145	2.26993	1.95649	1.55561	1.5715	75.97	-0.2407	0.0706	0.3113	978.6831	0.184737	-424.241408	-424.233556	-424.232612	-424.273026	32.562	
C	-0.1150652094	 1.576532476	-0.0237423098	-0.456128
C	 0.0314108617	 0.0627530341	 0.0115887752	 0.449874
O	-1.2829887792	-0.4634074974	-0.073994892	-0.510871
C	 1.0230491381	-0.5668581296	-1.0202330669	-0.081948
C	 2.3915911457	-0.0197325815	-0.5595843599	-0.231008
C	 2.2558027545	-0.0482963987	 1.0013004194	-0.227979
C	 0.8174099587	-0.5493934914	 1.1928418996	 0.046271
O	 0.7653598926	-1.9536432218	 0.8680972706	-0.30473
C	 0.9544992076	-2.0353157929	-0.5701046096	-0.103777
H	 0.8422937907	 2.099384779	-0.0103400814	 0.116411
H	-0.6530246412	 1.8683307974	-0.9307025911	 0.128708
H	-0.7071639958	 1.9106791366	 0.8332717983	 0.123764
H	-1.2561236695	-1.3380618003	 0.3334169445	 0.289231
H	 0.7779642099	-0.4094774139	-2.0711571088	 0.069395
H	 3.2159191264	-0.6429976283	-0.9169691149	 0.100371
H	 2.5692334009	 0.9919877381	-0.9324282393	 0.101625
H	 2.9588393396	-0.7372442693	 1.4746645656	 0.111126
H	 2.4039294427	 0.9382658355	 1.4497218274	 0.102465
H	 0.3879239094	-0.420582084	 2.1875542739	 0.074895
H	 0.1083626933	-2.5746449223	-1.0100835986	 0.102092
H	 1.8732190633	-2.5912219755	-0.7900224322	 0.100215
