18
gdb 83089	2.44874	1.73867	1.48148	2.4083	70.53	-0.2425	0.0138	0.2562	973.1034	0.149002	-439.072757	-439.065008	-439.064064	-439.10452	30.474	
C	-0.1527554382	 1.5726027307	-0.0127617167	-0.43068
C	 0.0599506796	 0.0714620578	 0.0320217887	 0.009688
C	 1.1550795513	-0.6139940301	-0.8309155421	 0.044419
O	 2.398849928	 0.1140304417	-0.7297333825	-0.237324
C	 2.7048371093	 0.410786206	 0.5602204923	 0.099238
N	 2.0101558278	 0.1052368459	 1.5752359262	-0.256501
C	 0.7867773675	-0.6305312996	 1.2340904454	-0.034446
C	 1.169487073	-1.7541000017	 0.2308188097	 0.107305
O	 0.114500176	-2.6762648728	 0.0879879294	-0.434576
H	 0.7669631036	 2.1304720604	 0.1773316982	 0.131886
H	-0.5334949842	 1.8778555451	-0.9936111708	 0.11571
H	-0.8875847513	 1.8778355363	 0.7395322158	 0.122552
H	-0.8736055658	-0.463638525	-0.1495461295	 0.102244
H	 1.0022340482	-0.8278936533	-1.8899515625	 0.079418
H	 3.6356054193	 0.9675711288	 0.6304571621	 0.130989
H	 0.2253623557	-0.8966027922	 2.1291568837	 0.081627
H	 2.1358229976	-2.2426985002	 0.4050375749	 0.080664
H	 0.2926573826	-3.2221587676	-0.6852508323	 0.287784
