19
gdb 71308	3.27287	1.45189	1.15756	0.6041	86.51	-0.253	0.0478	0.3008	1095.4301	0.158329	-348.651805	-348.643807	-348.642863	-348.683852	32.164	
C	 0.0730173571	 1.4935494256	-0.1850012316	-0.526103
C	 0.0600028424	-0.0099463019	-0.1265248999	 0.353708
C	 0.5801999933	-0.9956416609	-1.1983858261	-0.310014
C	 0.0555563907	-1.9073014427	-0.0778587024	-0.059707
C	 0.556737781	-0.9418517758	 1.0457564761	-0.08399
C	-0.8259052194	-0.9632165911	 1.7534359687	-0.202349
C	-1.2386409348	 0.1416350626	 2.5971838256	 0.297808
C	-1.5931003433	 1.0340310127	 3.3229660351	-0.440527
C	-1.148083242	-0.9586823636	 0.2338477058	-0.083994
H	 1.0982702363	 1.8669080985	-0.2886000092	 0.116074
H	-0.4981711499	 1.8511323432	-1.049380003	 0.116072
H	-0.3610986214	 1.9319100137	 0.7168824853	 0.139907
H	 0.0365998369	-1.0181410511	-2.1492701618	 0.089866
H	 1.6612962091	-1.0021073758	-1.3755226031	 0.089867
H	 0.0372905611	-2.9961763551	-0.0169337962	 0.07088
H	 1.5464778528	-0.9348302115	 1.505497426	 0.074513
H	-1.0510651207	-1.9170767773	 2.2459903897	 0.092644
H	-1.9032101138	 1.8266956176	 3.9576757229	 0.190832
H	-2.1287614856	-0.9711169672	-0.2448083618	 0.074514
