18
gdb 133698	3.45159	0.9953	0.94545	2.1801	64.69	-0.308	0.0832	0.3912	1284.3946	0.143912	-533.462403	-533.453667	-533.452723	-533.496439	32.417	
C	-0.6918325211	 1.1595386966	-0.0908908774	-0.411596
C	 0.2486688576	-0.0209922535	 0.0860275751	 0.064015
C	 1.4962428212	-0.1193981096	-0.8416049111	-0.254218
C	 2.3673158743	-0.4862155856	 0.3931652228	-0.137989
C	 1.2030810906	-0.0292739367	 1.3171368041	-0.254203
C	 2.694954584	-1.9549839887	 0.4990107072	 0.276205
F	 3.5533095122	-2.3371671664	-0.4618145933	-0.082681
F	 3.2615752275	-2.2477525735	 1.6819100273	-0.082684
F	 1.601316833	-2.7338399814	 0.3826682559	-0.089839
H	-0.1450108925	 2.1093136506	-0.0566488584	 0.110447
H	-1.2142392059	 1.110702337	-1.0528228573	 0.11795
H	-1.4513880488	 1.1841206158	 0.6984682228	 0.117953
H	-0.3148384183	-0.9573741916	 0.0485774705	 0.086787
H	 1.4653516198	-0.8461896405	-1.6559829627	 0.11617
H	 1.7836061072	 0.8522179452	-1.2524166523	 0.103896
H	 3.3116746571	 0.0517983425	 0.4989368872	 0.099723
H	 1.3814749514	 0.975845887	 1.7086632371	 0.103896
H	 0.9484300706	-0.6872641773	 2.1505606627	 0.116169
