18
gdb 57855	2.33117	1.2169	0.93854	3.4762	72.87	-0.2808	-0.0552	0.2256	1289.0955	0.14458	-439.118356	-439.10811	-439.107166	-439.154229	35.981	
C	-0.4594641051	 1.6466343392	 0.182040011	-0.406215
C	 0.0558121751	 0.1988060199	 0.1641123599	 0.054184
O	 0.7371922459	-0.0903960517	 1.3526869939	-0.433969
C	-1.0564400646	-0.8197452269	-0.0600301958	 0.367042
O	-1.2544572029	-1.6979637038	 0.7450649713	-0.313351
C	-1.8891489941	-0.731754581	-1.3635491842	-0.229474
C	-2.2757685119	-2.134786468	-1.8684988463	-0.393186
C	-3.0763098606	 0.0888424401	-1.109625008	 0.284328
N	-4.0148783288	 0.7319945471	-0.9058204419	-0.316407
H	 0.385645208	 2.3080154538	 0.3860229487	 0.142139
H	-0.9054319943	 1.9405913528	-0.7720077105	 0.126122
H	-1.201438286	 1.7790841714	 0.9735101892	 0.14543
H	 0.7398012752	 0.0864160451	-0.6987312046	 0.095457
H	 0.3106402253	-0.8782278652	 1.723331537	 0.296871
H	-1.2908781039	-0.2092938464	-2.1192234704	 0.139732
H	-2.9045115266	-2.0589263958	-2.7577304082	 0.141578
H	-1.3734702592	-2.697632571	-2.1201966718	 0.1349
H	-2.8149393414	-2.6760307595	-1.0902540195	 0.164822
