17
gdb 47796	2.53124	1.78903	1.19578	2.9545	70.74	-0.2544	0.0044	0.2588	1024.3806	0.13869	-455.116188	-455.10877	-455.107826	-455.148413	28.465	
N	-0.0293511984	 1.1928305139	 0.7184553159	-0.499514
C	 0.0514538173	 0.0997081216	 0.0818127916	 0.382522
O	 1.2555022779	-0.4967002144	-0.1737125281	-0.243927
C	 1.5375893942	-0.9880642902	-1.4795634822	 0.005573
O	 0.9407856918	-2.1999368843	-1.7905186268	-0.205582
C	-0.3595319884	-2.1073397254	-2.3356642681	-0.109052
C	-1.4185585091	-1.6111872906	-1.3745401551	-0.049786
N	-1.3313312568	-2.0393739519	 0.013323777	-0.317847
C	-1.213613123	-0.59630018	-0.2962047302	-0.076884
H	 0.9099169646	 1.5414561827	 0.9218684868	 0.222265
H	 1.2759119954	-0.2167176688	-2.2217631306	 0.092206
H	 2.6155280318	-1.1568894036	-1.4710910554	 0.128224
H	-0.3563578554	-1.461116433	-3.2291157831	 0.099113
H	-0.6161508003	-3.1215741439	-2.6585279677	 0.123608
H	-2.403821852	-1.5731144977	-1.8425407262	 0.09369
H	-2.2480962266	-2.2345534123	 0.40501536	 0.242589
H	-2.0660313631	 0.0374238479	-0.0709644779	 0.112802
