18
gdb 128473	3.79722	0.99765	0.9037	2.4087	74.17	-0.2573	-0.0077	0.2496	1333.7702	0.146499	-439.070333	-439.061286	-439.060342	-439.105672	32.005	
C	-0.1337257747	 1.4656423955	 0.0252947352	-0.234296
O	-0.0919250213	 0.0796143729	 0.2790999934	-0.251765
C	-1.3087211592	-0.606526844	 0.0228258669	 0.030075
C	-1.5541871991	-0.8259264276	-1.4770519173	-0.405264
C	-1.2101012182	-1.9191108847	 0.7523157621	 0.376702
N	-2.290761377	-2.5179368634	 1.1913505737	-0.214708
O	-1.8547230999	-3.7073228002	 1.7696045818	-0.16558
C	-0.5198426783	-3.7744144771	 1.6614072144	 0.075392
C	-0.0359954473	-2.6785756042	 1.0269655658	-0.318131
H	 0.8216372173	 1.878601985	 0.3578411892	 0.130706
H	-0.2608038632	 1.6987317916	-1.0414461483	 0.110268
H	-0.9453435977	 1.9545808336	 0.5858362239	 0.109828
H	-2.1538837994	-0.0422029488	 0.4454101184	 0.091096
H	-1.6538625997	 0.1269503551	-2.0042848758	 0.118348
H	-0.7240490992	-1.3850738314	-1.9185835215	 0.126269
H	-2.4768545947	-1.3940881751	-1.6222833868	 0.139287
H	-0.0592571187	-4.6534575586	 2.0852098283	 0.1501
H	 0.9833398403	-2.4230275585	 0.7972240466	 0.131673
