16
gdb 55502	3.45388	1.00797	0.78407	2.7459	69.17	-0.2515	-0.0587	0.1929	1393.2254	0.12424	-471.287439	-471.27808	-471.277136	-471.322151	33.317	
C	-0.0344373909	 1.5272295183	-0.051824548	-0.465954
C	 0.1799370172	 0.0382563997	 0.0206982988	 0.381316
N	 1.3408222255	-0.4686287324	 0.0705593347	-0.485359
N	-1.0365024378	-0.687192135	 0.0254529853	-0.374747
C	-1.1928991708	-2.0335437729	 0.0830097279	 0.345751
O	-0.3138750329	-2.8773558629	 0.1416976415	-0.380348
C	-2.6910599484	-2.4166056338	 0.0658554217	 0.348804
N	-2.8649224279	-3.7476119295	 0.1224920496	-0.517416
O	-3.563913096	-1.5673698175	 0.00727425	-0.375629
H	 0.9346473181	 2.0239256953	-0.0520417845	 0.158633
H	-0.5810058049	 1.8004414256	-0.9617335777	 0.138401
H	-0.621661298	 1.8805566471	 0.8035386214	 0.138406
H	 1.2929379101	-1.4872929282	 0.1156704339	 0.249141
H	-1.9190181872	-0.1885691394	-0.0175563926	 0.275874
H	-2.0469700134	-4.3351879253	 0.1682857857	 0.287667
H	-3.7907986927	-4.1401966491	 0.1194017524	 0.275459
