18
gdb 32248	2.56971	1.57541	0.98873	3.1781	83.46	-0.2218	-0.0115	0.2103	1185.6037	0.148511	-402.008269	-401.999851	-401.998907	-402.041384	31.34	
C	-0.0967638748	 1.388353101	-0.048963671	-0.249019
O	-0.0072207406	-0.0223264057	 0.0215306501	-0.262116
C	 0.6429158943	-0.5717277008	 1.0823064884	 0.320318
C	 1.2331766945	 0.1460810134	 2.1160717823	-0.221522
C	 1.865495502	-0.5629983658	 3.137866345	-0.120611
C	 1.8787380656	-1.9467946407	 3.0798991167	-0.020694
N	 1.3110242462	-2.6416796995	 2.0853053994	-0.309042
C	 0.7031695044	-1.9832523114	 1.1017542132	 0.246835
C	 0.0715899885	-2.7818559942	-0.0059982636	-0.471847
H	 0.8957015039	 1.8542584061	-0.1020640634	 0.126491
H	-0.6479375934	 1.6126941567	-0.9634038993	 0.138728
H	-0.6395531994	 1.8024114733	 0.8105869629	 0.126484
H	 1.2079491632	 1.2283166243	 2.1364793931	 0.103508
H	 2.3373405347	-0.0383569807	 3.9614248077	 0.09691
H	 2.3617711336	-2.5319777742	 3.8578797066	 0.10105
H	-1.0022083835	-2.5770684788	-0.0787190773	 0.130293
H	 0.5032410428	-2.5200283307	-0.9782517766	 0.130273
H	 0.2259718281	-3.8442315023	 0.1855211959	 0.13396
