19
gdb 59187	3.57582	1.02188	0.9714	3.0428	76.36	-0.2576	-0.0118	0.2458	1298.4329	0.157098	-422.97039	-422.961553	-422.960609	-423.004036	33.159	
C	 0.0726498861	 1.48618112	 0.1030397137	-0.394315
C	-0.102072331	-0.0351322313	-0.0128403935	-0.003719
C	-1.5887079106	-0.4176814667	-0.056657232	-0.394315
C	 0.6231187179	-0.564243449	-1.2492475681	 0.025933
C	 2.1759923223	-0.6881944539	-1.2003506073	-0.106997
O	 2.0268866231	-1.8683119929	-0.305651987	-0.300614
C	 0.9570460072	-2.0850992677	-1.3175032328	-0.106996
C	 2.0712688873	-1.7363772589	-2.3406161069	 0.481269
O	 2.6069012441	-2.1211882932	-3.3253632108	-0.309792
H	 1.1278766029	 1.7685374673	 0.171671357	 0.115139
H	-0.3566353653	 2.0011193414	-0.7648051343	 0.114255
H	-0.4325858967	 1.8669568353	 0.9962591483	 0.117873
H	 0.3540349596	-0.5066679919	 0.8637153136	 0.098406
H	-2.0846513864	 0.0209079675	-0.9308889967	 0.114255
H	-1.7265107567	-1.5024976182	-0.1027423878	 0.115138
H	-2.1085589669	-0.0536958222	 0.8351742246	 0.117874
H	 0.2188934104	-0.1339341746	-2.1743113559	 0.086972
H	 2.9373456065	 0.0458726686	-0.9454898486	 0.114817
H	 0.3172777062	-2.9567165895	-1.1973060653	 0.114817
