18
gdb 92573	4.00249	1.31892	1.08881	2.5326	73.17	-0.2521	0.0203	0.2724	1128.6025	0.149425	-439.106297	-439.098777	-439.097833	-439.138319	29.154	
C	 0.0642642705	 1.5543983759	-0.0028514092	-0.403678
C	 0.1023034599	 0.0482063658	 0.0229393041	 0.211126
O	 0.650967026	-0.463620315	-1.1764950405	-0.277545
C	 1.2146352259	-1.7172703563	-0.7946941436	 0.022077
C	 2.5145540758	-2.2132533829	-1.4181205456	-0.275048
C	 3.2409883713	-2.7618401303	-0.1388215862	-0.162682
N	 2.7764120886	-1.9292672309	 0.9999917078	-0.317434
C	 1.7060734222	-1.3976092364	 0.587692374	 0.416272
O	 0.962847178	-0.4116036174	 1.1134185821	-0.267624
H	 1.0723430123	 1.9473049476	-0.1527880466	 0.141272
H	-0.5778443317	 1.8889686642	-0.8217192465	 0.136799
H	-0.3365378968	 1.9349156219	 0.9395092405	 0.1383
H	-0.8918522447	-0.389166495	 0.206921956	 0.088461
H	 0.4341921697	-2.4959638041	-0.7882647445	 0.091509
H	 2.3857392521	-2.9601564458	-2.2036991057	 0.106863
H	 3.068919956	-1.361890861	-1.8242978274	 0.125005
H	 3.0004185753	-3.8188829539	 0.0355230906	 0.109689
H	 4.3289640294	-2.6907658266	-0.2198910593	 0.116637
