23
gdb 65132	2.85514	1.31069	1.19968	0.2911	88.46	-0.2405	0.0903	0.3307	1188.5861	0.206516	-351.110009	-351.101296	-351.100352	-351.143219	34.83	
C	 0.6807616297	 0.1572116575	-1.3754900442	-0.453389
C	 0.0516144314	 0.0679914776	 0.005697818	 0.341701
C	 0.9313905061	-0.4882139761	 1.1059331787	-0.305339
C	 0.5932161034	 0.9792387273	 1.0864179185	-0.298922
C	-1.3932805462	-0.3789610455	-0.0038706038	-0.064003
C	-2.5864443717	 0.2052988062	 0.7142515879	-0.093167
C	-2.6261827852	 1.7418612221	 0.7224026217	-0.220298
C	-2.4862662002	 1.7475413381	-0.8302757762	-0.228469
C	-2.5090835103	 0.21141253	-0.8230891732	-0.082617
H	 1.7426310657	 0.4163682828	-1.3116851068	 0.106955
H	 0.6038114168	-0.801826091	-1.9014776038	 0.11198
H	 0.187165286	 0.9119756009	-1.9965839311	 0.118507
H	 0.4602445584	-1.0991383992	 1.8692553564	 0.106527
H	 1.939839242	-0.7947000585	 0.8479793014	 0.103242
H	 1.3697866842	 1.6857045188	 0.8108440593	 0.104593
H	-0.0801584664	 1.33823249	 1.8539410732	 0.1149
H	-1.4674493984	-1.4675372253	-0.0175407074	 0.084878
H	-3.1992528685	-0.4186166645	 1.3555304153	 0.078974
H	-3.6080736078	 2.1071010155	 1.033290697	 0.100499
H	-1.8672128435	 2.273066334	 1.2999105088	 0.09647
H	-3.3559999916	 2.184553267	-1.3254668083	 0.099206
H	-1.5863679412	 2.2150775018	-1.2402458302	 0.099047
H	-3.0620671129	-0.3959327294	-1.5305571111	 0.078724
