17
gdb 65468	4.43825	0.74312	0.73307	2.1625	73.52	-0.2499	-0.0448	0.2051	1532.8612	0.132363	-458.966912	-458.957541	-458.956597	-459.002205	33.197	
O	 0.0031109364	 1.3015329833	 0.2586353664	-0.464976
C	 0.0011453721	-0.0575273505	-0.0023831849	 0.346795
C	-0.5142227039	-0.9820799834	 1.0785656637	-0.345417
C	-1.3487523916	-0.7758318579	-0.1564279814	-0.107272
C	-2.611713022	 0.0606930615	-0.1281001457	-0.302187
C	-3.7688210745	-0.685244161	 0.5061956388	 0.167968
O	-4.8583941161	-0.8090055645	 0.0113713582	-0.235866
C	 1.0964329171	-0.4964583455	-0.888979596	 0.100774
O	 1.8734815806	 0.2956709494	-1.3741133115	-0.288423
H	 0.687779941	 1.66639553	-0.3255354823	 0.300769
H	-0.0259390504	-1.9384448361	 1.2325401901	 0.129682
H	-0.8112598058	-0.4679304389	 1.9863647111	 0.143211
H	-1.3639672104	-1.6041144853	-0.8603453627	 0.108719
H	-2.4226249421	 0.9667357856	 0.4620519092	 0.147388
H	-2.9078061593	 0.3739010682	-1.1330742682	 0.129322
H	-3.5348021698	-1.1294665589	 1.5014111402	 0.07566
H	 1.1534200086	-1.5841787761	-1.097174405	 0.093853
