15
gdb 28724	4.58338	0.95944	0.81613	3.0356	71.75	-0.2332	-0.004	0.2293	1357.9417	0.112038	-453.973807	-453.965359	-453.964415	-454.008321	29.251	
C	 0.0529864285	 1.453880452	 0.1234496652	-0.486057
C	 0.0334029548	-0.0239460655	-0.0154701989	 0.39204
N	-0.2499903956	-0.7400580777	-1.054599688	-0.291134
C	-0.1341847167	-2.0618325019	-0.6328694526	-0.216983
C	 0.2274010678	-2.0617653852	 0.6678749933	 0.375774
O	 0.5558229641	-3.0406234601	 1.5289508912	-0.212345
C	-0.0734207024	-3.0537575087	 2.7495824538	 0.113465
N	 0.2973378366	-3.8923083329	 3.6059385743	-0.415143
O	 0.3468381432	-0.7675399497	 1.0918951177	-0.211093
H	 1.0441440531	 1.8111035313	 0.4214340635	 0.149311
H	-0.2119359444	 1.897123485	-0.8367499686	 0.161265
H	-0.661672296	 1.79134059	 0.8815838101	 0.144725
H	-0.3117804286	-2.9007699819	-1.2841358189	 0.135746
H	-0.8613898087	-2.2988932203	 2.8299390806	 0.117459
H	-0.2612553158	-3.8024499843	 4.4521455274	 0.24297
