21
gdb 110205	2.15125	1.50543	1.05792	2.3833	79.01	-0.2436	0.0698	0.3135	1216.8908	0.181153	-424.179337	-424.169956	-424.169011	-424.21311	36.427	
C	-0.005203738	 1.5759912848	 0.004205272	-0.379646
C	-0.1642186222	 0.051664639	-0.0750291833	-0.240458
C	 0.6528941219	-0.5466900231	-1.212403489	-0.0115
C	 2.1902080896	-0.7718094856	-1.1070435999	 0.400982
O	 3.0861191414	 0.262979698	-0.9193233884	-0.474911
C	 1.9295820664	-2.0032330448	-0.1810531537	-0.378569
C	 0.8970072403	-2.0762554497	-1.352573948	 0.389473
O	-0.1320349758	-2.9788409798	-1.5298376401	-0.476481
C	 2.0700758116	-1.7388315302	-2.3280129398	-0.363476
H	 1.0386630688	 1.8500740026	 0.1838093945	 0.13502
H	-0.3159493286	 2.0543982045	-0.9313692694	 0.111541
H	-0.6144208156	 1.9959572006	 0.8106819286	 0.105676
H	 0.1046504735	-0.3906260447	 0.889406569	 0.096421
H	-1.2189483911	-0.2027508013	-0.2396312984	 0.104273
H	 0.362217155	-0.0778041217	-2.1608491826	 0.063578
H	 3.9748064642	-0.1047349389	-0.8658547859	 0.283862
H	 2.7076746477	-2.7736316977	-0.1759588874	 0.077207
H	 1.5499581955	-1.8162654166	 0.8230461755	 0.101167
H	 0.2418430742	-3.8648574325	-1.5827078743	 0.283819
H	 1.7985220436	-1.2894211703	-3.2862433887	 0.095753
H	 2.8534811779	-2.4963466926	-2.4315768203	 0.076271
