15
gdb 127286	5.34363	1.32394	1.06826	1.6723	75.44	-0.2114	-0.0011	0.2103	1068.5959	0.116395	-413.015146	-413.007943	-413.006999	-413.047685	26.797	
C	 0.0221717716	 1.3835709469	 0.0762632091	-0.311948
N	-0.0156195452	-0.0592318543	-0.0078117533	 0.047687
C	-0.1266639127	-0.8113066011	-1.1422673636	-0.177752
C	-0.0598794028	-2.129245486	-0.7191330028	 0.194706
N	-0.0933241911	-3.4591590242	-1.1140025311	-0.351232
C	 0.0366071619	-4.1133771155	 0.010901816	 0.003531
N	 0.1534442064	-3.3157146769	 1.1427331976	-0.396721
C	 0.093176949	-2.0220761494	 0.6776467614	 0.434701
N	 0.1256841641	-0.7821494633	 1.1445706124	-0.414421
H	 1.0260265717	 1.7331742641	 0.3377919998	 0.144931
H	-0.2639367056	 1.8022515664	-0.8899864039	 0.138592
H	-0.6790873683	 1.7257519064	 0.8409356253	 0.150965
H	-0.2407579461	-0.3465936659	-2.1076894044	 0.135576
H	 0.0572707422	-5.190879058	 0.0981737284	 0.130438
H	 0.2621283651	-3.6326440793	 2.0900428091	 0.270946
