17
gdb 14868	2.74696	1.73691	1.12666	5.0297	66.85	-0.2355	0.031	0.2665	1037.2984	0.14197	-401.00235	-400.993866	-400.992921	-401.036166	29.383	
O	 0.141515317	 1.3050472424	 0.3300159884	-0.417016
C	 0.0921744318	-0.0682624555	-0.0200825558	-0.083018
C	-1.3630374142	-0.4951703306	 0.0193677269	 0.055039
C	-1.6597005582	-2.0094250425	-0.1917254372	-0.280575
C	-2.3448331054	-2.0196874017	 1.2064769338	-0.161152
N	-1.9465707355	-0.6208377098	 1.3618060448	-0.040651
C	-2.3161454377	 0.2789028166	 2.3042607734	 0.116703
O	-2.9583148498	-0.0046636269	 3.2965307456	-0.336584
H	 1.0597825252	 1.5577163153	 0.4622269875	 0.294036
H	 0.486346939	-0.2439499058	-1.0348896032	 0.091947
H	 0.6703072767	-0.6880703191	 0.681896843	 0.093115
H	-1.940926223	 0.169908976	-0.6346603537	 0.097024
H	-2.3091454526	-2.2411723167	-1.0354349304	 0.120203
H	-0.7614220142	-2.6272137638	-0.2528591591	 0.114284
H	-3.4306468299	-2.1607102646	 1.1958639852	 0.124893
H	-1.9132117967	-2.6931559187	 1.9529006507	 0.123467
H	-1.9486490224	 1.2958333154	 2.0715374501	 0.088286
