18
gdb 98362	2.99185	0.85258	0.69946	3.8513	71.15	-0.2472	-0.0247	0.2225	1578.636	0.144866	-476.260855	-476.2504	-476.249456	-476.298182	35.309	
C	 0.0378178668	 1.4342865768	 0.03275856	-0.338729
N	-0.0712122057	-0.0145423173	 0.0338061162	-0.310295
C	-1.2548355702	-0.6661278349	 0.0267185529	 0.400216
O	-2.3467462306	-0.1140537329	 0.0298528142	-0.392678
C	-1.1973454101	-2.2055207789	 0.0009669867	 0.008369
O	-2.4790606385	-2.7000603251	 0.2750614535	-0.433982
C	-0.7018795585	-2.7089948166	-1.3776463961	-0.285525
C	-0.6659965082	-4.2226268721	-1.4314532192	 0.151901
O	 0.3119252539	-4.8612405861	-1.7288105417	-0.24233
H	 0.5752885701	 1.7888456451	-0.8528696916	 0.135719
H	-0.9739665715	 1.8395670054	 0.0234606305	 0.176865
H	 0.5581732543	 1.7903935919	 0.927821946	 0.136004
H	 0.7743327041	-0.5615416888	 0.0585485013	 0.25758
H	-0.4988654732	-2.5501382637	 0.7788243145	 0.096401
H	-3.0543751332	-1.9146400888	 0.2348217334	 0.29655
H	-1.4132365947	-2.3505461254	-2.1335397088	 0.131512
H	 0.2951986378	-2.3302020027	-1.6207822496	 0.106582
H	-1.6239862224	-4.7137580458	-1.1646514422	 0.105838
