20
gdb 115160	2.80567	1.23151	0.94944	5.0455	75.64	-0.2416	0.0615	0.3031	1287.6574	0.171246	-440.34482	-440.335289	-440.334345	-440.379965	33.718	
C	 0.7732618199	-0.3732239176	-1.307128849	-0.388586
C	 0.046773307	-0.0419422558	-0.0004103804	-0.196413
C	-1.4508118128	-0.3916701616	-0.0394182934	 0.004439
C	-1.7430404567	-1.9097265998	 0.0274932758	-0.102618
O	-2.164349528	-2.1640860496	 1.3710531525	-0.247046
C	-2.5104577513	-0.9853539978	 1.9744700639	 0.483657
O	-3.0178715248	-0.9232627883	 3.0625855177	-0.407966
N	-2.1793168304	 0.0488460293	 1.1367511294	-0.127212
C	-2.3984623978	 1.4276244258	 1.5029186408	-0.347703
H	 1.8315205699	-0.1052994313	-1.2438736859	 0.125415
H	 0.7205158369	-1.4408439198	-1.5462081612	 0.121424
H	 0.3407512003	 0.1763248465	-2.1506570912	 0.120056
H	 0.5089121865	-0.5716961586	 0.8420085046	 0.11356
H	 0.1537826694	 1.0285695524	 0.208579582	 0.10578
H	-1.8930531086	 0.0449960011	-0.9454242208	 0.08377
H	-2.5460996533	-2.2029572647	-0.6574221724	 0.118478
H	-0.8615612026	-2.5210393788	-0.1781759609	 0.123058
H	-2.9871575085	 1.430240207	 2.4216987853	 0.169788
H	-1.4593441879	 1.9634231954	 1.6878250738	 0.125769
H	-2.9508536773	 1.9575798461	 0.7176324795	 0.122351
