15
gdb 31683	5.26402	0.90147	0.77482	6.7299	72.19	-0.2367	-0.0315	0.2052	1380.3718	0.113126	-453.989661	-453.981264	-453.98032	-454.023656	29.528	
O	-0.1425867496	 1.4235720775	-0.1930399992	-0.432608
C	-0.0000834989	 0.0241940434	 0.013723711	-0.19163
C	-1.3754104477	-0.5673979805	 0.0095755884	 0.362687
N	-1.6843554943	-1.8357462177	-0.0330059051	-0.344431
C	-3.0665920063	-1.8757969926	 0.0132030696	 0.163381
C	-3.8645101901	-3.1005102148	-0.0108680797	 0.078404
O	-3.4359390762	-4.2287987414	-0.0697087002	-0.271907
C	-3.5766732924	-0.5937683752	 0.0803731526	-0.15046
N	-2.4885973369	 0.2293776577	 0.0818000803	-0.261284
H	 0.7124573909	 1.8407922418	-0.0592373779	 0.302042
H	 0.5978436397	-0.4543698751	-0.773914097	 0.134241
H	 0.4895824731	-0.1925027147	 0.9750418053	 0.126337
H	-4.9616754208	-2.9019604799	 0.0321251884	 0.054845
H	-4.5863601943	-0.218925258	 0.1201885088	 0.147715
H	-2.4630609761	 1.2363597695	 0.0971340648	 0.282667
