14
gdb 2933	6.21365	1.99988	1.65995	0.2522	53.21	-0.2532	0.0157	0.269	730.0545	0.115004	-361.720799	-361.714321	-361.713377	-361.751625	23.111	
O	 0.0997288205	 1.3629810722	 0.1205438763	-0.419672
C	 0.0297762824	-0.0455170795	 0.0914047671	-0.065197
C	-1.3884244967	-0.5483630348	-0.1401808821	 0.074474
C	-1.5600018208	-2.0843875173	-0.0267981012	-0.203627
N	-2.4055818373	-2.2926269703	 1.1636457894	-0.255737
C	-2.6923756304	-1.1363770591	 1.589034369	 0.121587
O	-2.2244686676	-0.0373958647	 0.9445140221	-0.245591
H	-0.5294171636	 1.6552148535	 0.7900563898	 0.292127
H	 0.6698274315	-0.3812700082	-0.7321628386	 0.116585
H	 0.4179694159	-0.4963756232	 1.0202003791	 0.095392
H	-1.7863386067	-0.1278585256	-1.0677088096	 0.102976
H	-2.0438708834	-2.5222416426	-0.9051149437	 0.123664
H	-0.5997033468	-2.5963235528	 0.1067478865	 0.11907
H	-3.3083969569	-0.9182385876	 2.454445116	 0.143949
