21
gdb 104629	2.36657	1.2798	0.99019	1.4414	84.88	-0.2497	0.0517	0.3014	1281.035	0.180097	-387.048318	-387.038383	-387.037439	-387.082728	37.817	
C	-0.4045620449	 1.2453046506	 0.1178011659	-0.392464
C	 0.0421725223	-0.212948167	 0.2369672515	-0.240062
C	 1.0185737509	-0.4858147267	 1.4017316142	 0.162754
C	 0.3185214097	-0.4629054849	 2.8112934522	-0.263295
C	 0.2558256457	-2.0046069879	 2.8043530658	 0.117237
O	-1.0581914322	-2.420011849	 2.4691014157	-0.428309
C	 1.2577902974	-2.0246392059	 1.6176992202	-0.302055
C	 2.2287200723	 0.3116494664	 1.2895203808	 0.268583
C	 3.2394381173	 0.9595015085	 1.2033050126	-0.463223
H	 0.4507280063	 1.9072535009	-0.0459192296	 0.129344
H	-1.0965338937	 1.3688914157	-0.7208328945	 0.111298
H	-0.9204393596	 1.5831585558	 1.0229717445	 0.115683
H	-0.8264924179	-0.8638967876	 0.3801405407	 0.114295
H	 0.5290374288	-0.5273741436	-0.6946880329	 0.097295
H	 0.970710352	-0.0693707588	 3.5922907054	 0.110374
H	-0.6523699796	 0.0338245064	 2.8614036725	 0.117004
H	 0.5979263539	-2.5029216327	 3.7204669548	 0.067344
H	-1.0316268061	-3.3643326236	 2.2821515364	 0.282473
H	 0.9920675705	-2.6680951398	 0.7738510179	 0.09835
H	 2.2803991482	-2.2434314368	 1.9321513162	 0.108914
H	 4.1297545688	 1.5330757501	 1.1280377498	 0.188461
