17
gdb 42422	2.98434	1.02275	0.89296	4.5221	74.9	-0.2412	-0.0846	0.1566	1330.1413	0.13503	-417.994269	-417.985296	-417.984352	-418.029757	31.118	
O	-1.1344544896	 1.1563833787	 1.5740331626	-0.257211
C	-0.2641133848	 1.4653273896	 0.802534621	 0.300337
C	 1.1226548929	 1.9466887302	 1.2004056181	-0.26751
N	 2.1334748692	 1.4085041886	 0.3323953756	-0.070229
C	 2.6734773746	 0.0516927071	 0.5743010628	-0.169052
C	 4.0581418467	 0.5624799731	 0.1083438198	-0.225652
C	 3.4934043729	 1.987232685	 0.3311635861	-0.162413
C	-0.5095727223	 1.408709031	-0.6580927838	 0.23877
N	-0.7723027696	 1.376282213	-1.7837839265	-0.310409
H	 1.1132826844	 3.0409913166	 1.0898220427	 0.145318
H	 1.256718266	 1.7216753504	 2.2729130699	 0.117245
H	 2.6648546956	-0.2272458767	 1.6404041041	 0.094957
H	 2.1944514963	-0.7438554399	-0.0041929741	 0.119127
H	 4.9204889798	 0.2722351966	 0.7076786942	 0.113254
H	 4.2532353457	 0.3479500778	-0.9431336712	 0.125463
H	 3.6660729038	 2.7411096043	-0.4432268639	 0.115065
H	 3.7878236384	 2.4037091247	 1.3073171827	 0.092941
