16
gdb 128508	2.95207	1.22771	0.88272	4.2502	68.74	-0.2156	0.0046	0.2201	1266.0746	0.124574	-471.1836	-471.174675	-471.173731	-471.218245	30.87	
C	-0.0528778588	 1.4494297059	 0.1114176776	-0.241472
O	-0.0138720359	 0.0271482853	 0.0001284373	-0.276457
C	 0.6281821619	-0.6126199424	 0.9928408197	 0.315039
C	 0.7618133705	-1.9816841683	 1.1158055038	 0.237875
C	 0.3247870552	-3.1451733724	 0.2952876311	-0.200214
O	 0.3231486241	-4.2860117405	 1.1462802823	-0.428204
N	 1.4889065387	-2.1017522689	 2.2539789556	-0.209706
N	 1.7725529976	-0.9193514424	 2.8083284694	-0.138323
N	 1.2509194867	-0.0007204886	 2.0274170818	-0.288676
H	 0.9568218959	 1.8718384053	 0.1082222069	 0.138448
H	-0.6106766112	 1.7995037424	-0.7581781939	 0.12686
H	-0.5563413605	 1.7583356462	 1.0330346404	 0.137617
H	-0.6711093136	-2.939137259	-0.1240132359	 0.124052
H	 1.0082519596	-3.2943545891	-0.5563849863	 0.116339
H	 0.1975273962	-5.0684537076	 0.6018137723	 0.298242
H	 1.7515830037	-2.9621145059	 2.7089044379	 0.288581
