15
gdb 33753	2.53676	1.64056	1.26737	0.2683	73.07	-0.2531	0.0053	0.2585	1009.0262	0.110269	-420.485718	-420.47814	-420.477196	-420.517657	29.51	
C	 0.0924814186	-1.1549984483	 0.000574377	-0.343381
C	 0.0313326665	 0.0454652209	 0.0122282753	 0.062677
C	-0.0828330317	 1.467880529	 0.0098093188	 0.233833
C	-0.7011349089	 2.4318889257	 1.069070797	-0.264863
C	 0.0288273762	 3.29572289	 0.0111799179	-0.070035
O	 1.1451439205	 2.320210014	 0.0250021974	-0.336186
C	-0.6100887192	 2.4330297636	-1.0860531091	 0.479305
C	-0.6875804601	 2.4143764405	-2.5303210599	-0.295618
O	-1.8682799386	 2.501372193	-1.6749290339	-0.278707
H	 0.1530199755	-2.215575275	-0.0080008998	 0.193121
H	-1.7902761564	 2.487916904	 1.1226276521	 0.124235
H	-0.2111777135	 2.3944693574	 2.0421203158	 0.118703
H	 0.2821491678	 4.3531027307	 0.0271065985	 0.111371
H	-0.4720999361	 3.3134876835	-3.1033725369	 0.130047
H	-0.5830560808	 1.4733884112	-3.0658042802	 0.135498
