17
gdb 87429	3.5158	1.40144	1.33096	2.3327	71.72	-0.2285	0.0671	0.2957	1004.7572	0.135537	-421.720095	-421.712885	-421.711941	-421.751612	29.073	
O	-0.0723316315	 1.376320422	-0.154416175	-0.423248
C	-0.0295999012	-0.0190656176	-0.0808296114	 0.018095
C	-0.4642949066	-0.7072875492	 1.2082601716	-0.412618
C	-1.3414290631	-0.7072029317	-0.0126885541	 0.449001
C	-2.7473457566	-0.1657278802	-0.1085617662	-0.222887
C	-3.2491685957	-0.707934122	-1.4641539953	 0.094956
O	-2.1732689562	-1.4037450866	-2.095403399	-0.289486
C	-1.8596097753	-1.9335537335	-0.7742324818	-0.066362
C	-3.3123181164	-1.5815535992	-0.2625916982	-0.137982
H	 0.6788027435	 1.723123237	 0.3385415383	 0.28712
H	 0.7667672937	-0.4921255267	-0.6569757668	 0.086042
H	 0.0385908145	-1.6247577985	 1.5007585918	 0.109146
H	-0.7531948468	-0.0626404598	 2.0324730272	 0.114578
H	-3.1848909515	 0.6886853195	 0.3891933471	 0.097833
H	-4.0080823499	-0.2404462929	-2.0771687627	 0.110547
H	-1.3472315916	-2.8934237755	-0.7923877217	 0.084611
H	-4.0943640694	-2.1270316751	 0.2461940363	 0.100657
