16
gdb 90135	3.56497	1.5475	1.41998	0.0905	67.13	-0.2284	0.0046	0.2331	931.2649	0.125149	-437.834109	-437.827079	-437.826135	-437.865248	28.184	
O	 0.0738018421	 1.4539274025	 0.1212247337	-0.424178
C	 0.0483379349	 0.0495606508	 0.068537277	 0.070631
C	 0.2949570137	-0.6141431492	 1.46972303	-0.302119
C	-1.0841106117	-1.275609873	 1.37419894	 0.293784
C	-2.226144874	-0.3377888426	 1.1555633712	-0.373437
C	-1.3232771806	-0.6578498761	-0.0060478503	 0.174346
N	-1.6592824635	-1.7590543989	-0.8811992114	-0.3041
C	-1.6503394255	-2.7886793474	-0.1271233179	 0.078962
O	-1.3104280204	-2.6636604853	 1.2013000457	-0.248578
H	-0.239452562	 1.7920043715	-0.724838616	 0.287694
H	 0.7242018512	-0.349120945	-0.6988210246	 0.087805
H	 1.111049295	-1.337472972	 1.4512369821	 0.122988
H	 0.4386644296	 0.0818218867	 2.3002086356	 0.118549
H	-3.2142816314	-0.7800041275	 1.1172555079	 0.134666
H	-2.1714653736	 0.6534786701	 1.5932616234	 0.136153
H	-1.9012837138	-3.7993977646	-0.4277674565	 0.146835
