23
gdb 115302	4.00452	0.91437	0.78692	0.9781	89.3	-0.2299	0.0319	0.2617	1535.0295	0.20591	-388.309835	-388.300211	-388.299267	-388.344238	36.249	
C	 0.0770205681	 1.3642825999	 0.1363506223	-0.239072
O	 0.0053516887	-0.0130692762	-0.145214949	-0.24767
C	-1.2978049214	-0.56846887	-0.0684919242	 0.137651
C	-1.2436655509	-1.946555015	-0.7202612535	-0.223233
C	-2.6357233401	-2.5881807162	-0.7692986558	-0.301765
C	-3.3991016778	-2.4479593954	 0.5293201791	 0.327519
C	-4.6234796395	-3.31022977	 0.6737603115	-0.473962
C	-3.0063696913	-1.5972612153	 1.4809471586	-0.149227
C	-1.808401832	-0.6881960266	 1.3759325611	-0.269504
H	 1.1037336553	 1.6812439693	-0.0649574843	 0.124162
H	-0.6036621634	 1.946898778	-0.5052801588	 0.100163
H	-0.1578580973	 1.5980813844	 1.185151688	 0.105412
H	-1.9969853497	 0.0693767069	-0.6386905496	 0.059781
H	-0.8178852179	-1.8577041162	-1.7242700271	 0.098498
H	-0.5608414483	-2.5757655974	-0.1364605184	 0.104689
H	-3.2303983138	-2.1457675073	-1.5833333467	 0.105108
H	-2.5453384114	-3.6515031683	-1.0278960952	 0.100357
H	-4.3664165635	-4.3764021399	 0.6229672889	 0.120304
H	-5.1394476785	-3.1289171944	 1.620476758	 0.117771
H	-5.3350287164	-3.1258886432	-0.1420273179	 0.119768
H	-3.5809270223	-1.5338240839	 2.4032152547	 0.073367
H	-0.9830921933	-1.0610707827	 2.0007490858	 0.111934
H	-2.0658784132	 0.2996499594	 1.7773736527	 0.097949
