18
gdb 70978	3.67058	1.27211	1.10064	1.2805	76.95	-0.2405	-0.0376	0.2029	1128.9713	0.146781	-401.894046	-401.885983	-401.885039	-401.926815	30.706	
C	-0.1365505313	 1.4823249933	-0.0303358344	-0.495486
C	 0.0117824584	-0.0051974396	-0.0634111661	 0.347473
C	 0.9470270563	-0.8441357559	-0.9398190658	-0.332028
C	 0.1543853953	-2.0708400924	-0.432959319	 0.207167
C	 0.4620331621	-2.0536364896	 1.0833912628	-0.194292
N	-0.2730189494	-0.7595226351	 1.2219891978	-0.180572
C	-1.0189951133	-1.0701842696	-0.0312076867	-0.153055
C	 0.0329643298	-3.3312862564	-1.213586169	 0.032422
O	 0.5757002116	-3.5378264567	-2.271477896	-0.24452
H	 0.7732804839	 1.9541062071	 0.3568875124	 0.12858
H	-0.3228348146	 1.8783864748	-1.0340235155	 0.122798
H	-0.9671158047	 1.7707091112	 0.6192598229	 0.136092
H	 0.7625504611	-0.6579139851	-2.0001110318	 0.122725
H	 2.0236156069	-0.825262096	-0.7405920042	 0.10133
H	-0.0755696228	-2.8214969894	 1.6466703331	 0.114387
H	 1.5170855566	-2.0383999483	 1.3798771007	 0.10783
H	-2.0974299969	-1.0898039865	-0.1247796332	 0.104842
H	-0.6180640689	-4.1046962659	-0.743766738	 0.074307
