18
gdb 124771	2.65452	1.43566	1.01115	3.7571	74.08	-0.2534	-0.004	0.2494	1177.5521	0.147835	-435.268311	-435.259285	-435.25834	-435.302309	32.666	
C	 0.9530952642	-1.0257347766	-1.0787351332	-0.403718
C	 0.1525004636	-0.4815370648	 0.1032946954	-0.000933
O	 0.3016751715	 0.937465322	 0.232263941	-0.42147
C	-1.2979286389	-0.8658497063	 0.0385258299	 0.316525
C	-2.0659520111	-1.5093220966	-0.9087898207	-0.167146
N	-3.3537403465	-1.5653175227	-0.4773338825	-0.195437
N	-3.4292881067	-0.989670913	 0.6891776209	-0.147754
N	-2.193732932	-0.5621085028	 1.0168288355	-0.008867
C	-1.9706176033	 0.1108084787	 2.2829192046	-0.342165
H	 1.9920465007	-0.6995782672	-0.9939027508	 0.131826
H	 0.9267832604	-2.1189868121	-1.103446117	 0.131651
H	 0.5508312869	-0.6533399246	-2.027293294	 0.120881
H	 0.5876766368	-0.8717558712	 1.0318912907	 0.105909
H	-0.1030082745	 1.3412434092	-0.5447276314	 0.284868
H	-1.7699721532	-1.9298044921	-1.8562201907	 0.122102
H	-1.4481734836	-0.54708612	 2.9849939443	 0.143498
H	-1.3720792399	 1.0074726404	 2.1178156922	 0.165387
H	-2.9479049642	 0.3667941697	 2.6911533057	 0.164843
