23
gdb 120627	3.24881	0.78322	0.70231	2.3806	83.83	-0.2517	0.0832	0.3348	1740.0752	0.202119	-425.404549	-425.393391	-425.392446	-425.441832	39.301	
C	 0.479135643	 1.3551871785	 0.3575170681	-0.380835
C	-0.3006871667	 0.1784006274	-0.2451312594	-0.250961
C	 0.4362220221	-0.4953348235	-1.3944070171	 0.401447
C	 0.5645119726	 0.3229045398	-2.6647435191	-0.462353
O	 1.6382207783	-1.1963543281	-1.021421749	-0.29742
C	 0.5284028266	-1.9630704415	-1.5016639949	-0.011453
C	-0.1161209525	-2.9458426073	-0.5569580014	-0.093093
O	 0.4521680049	-4.2146000225	-0.8022411646	-0.233552
C	-0.0747621363	-5.2186695993	 0.0304617778	-0.224513
H	 1.4660867492	 1.0233761162	 0.6929098539	 0.136159
H	 0.6216594561	 2.165815487	-0.3633762415	 0.117807
H	-0.0529317947	 1.7703234674	 1.2184994349	 0.11244
H	-0.5015996441	-0.5518002354	 0.5431483261	 0.101446
H	-1.277252533	 0.5220264447	-0.6096869947	 0.097982
H	 1.0897115396	 1.2638950095	-2.474451314	 0.128139
H	 1.1276678279	-0.2295922885	-3.4204472573	 0.128413
H	-0.4229702543	 0.5656990453	-3.0723179743	 0.117637
H	 0.6769527038	-2.3859267636	-2.4973497973	 0.090751
H	 0.0516944629	-2.6401971537	 0.4861183455	 0.099221
H	-1.2076741553	-2.9761396183	-0.728664629	 0.086612
H	 0.1182699164	-5.0117609166	 1.0950876489	 0.105564
H	-1.162920495	-5.3321472049	-0.1034582478	 0.101436
H	 0.4139756884	-6.1575527827	-0.2404373839	 0.129127
