20
gdb 62446	3.52882	1.1782	1.1549	2.0306	85.6	-0.2233	0.0477	0.271	1174.7022	0.170704	-365.962721	-365.95385	-365.952905	-365.995937	34.112	
C	-0.0459948638	 1.5640203093	-0.0152209206	-0.481114
C	 0.0146394494	 0.0440097202	-0.0551834967	 0.08673
C	-1.0899534853	-0.5695584536	 0.6497113132	 0.282034
C	-2.033342613	-1.0494416841	 1.2203626231	-0.400757
C	 0.6018751598	-0.7253837452	-1.206295688	-0.064194
C	 1.4360406202	-0.0078363775	-2.2591220828	-0.242541
C	 2.6271758721	 0.6192511336	-1.4868341196	-0.230537
C	 2.5331720031	 0.042417398	-0.045790327	-0.156717
N	 1.2831356999	-0.7279257908	 0.0932500093	-0.130215
H	 0.6833218999	 2.0451338954	-0.6660838662	 0.122973
H	-1.0418691987	 1.8924157963	-0.3259434554	 0.136121
H	 0.1128938027	 1.923210305	 1.0068202375	 0.134338
H	-2.8553000684	-1.4862115835	 1.7309978137	 0.187976
H	 0.1139441872	-1.6527331266	-1.4946148847	 0.095496
H	 1.7825526679	-0.7420669551	-2.9923840275	 0.111033
H	 0.8605713098	 0.7415259799	-2.8114082016	 0.111231
H	 3.5817076542	 0.3599514082	-1.9522417682	 0.105008
H	 2.5712694196	 1.7103823765	-1.4845571565	 0.111133
H	 3.3519669333	-0.6571551495	 0.1482473831	 0.112734
H	 2.5890288599	 0.8207472235	 0.721731675	 0.109269
