16
gdb 115444	4.03026	1.06116	1.02928	2.7782	65.	-0.267	0.0058	0.2727	1175.0291	0.1245	-475.021604	-475.013208	-475.012264	-475.055368	30.026	
O	-0.3217443255	 1.4453135177	 0.4167374323	-0.414963
C	-0.0802114847	 0.0734447868	 0.1834818567	-0.097829
C	-1.3653129575	-0.6868662764	-0.1373126906	 0.207278
O	-2.2715972268	-0.7257612752	 0.944269636	-0.255407
C	-3.2734566163	 0.2460443787	 0.7116182323	-0.109705
C	-3.3641807954	 0.2481963055	-0.8251192041	-0.051493
O	-2.0233994334	-0.0022277902	-1.2145186914	-0.280109
C	-4.2788453638	-0.788127076	-1.3436901648	 0.280481
N	-5.0060993483	-1.5879525041	-1.7507326743	-0.312372
H	-0.6607560078	 1.8037966461	-0.4111685612	 0.290466
H	 0.6389765523	-0.0888545292	-0.6341935492	 0.102574
H	 0.3475616997	-0.3422878818	 1.1002119293	 0.130727
H	-1.1469633316	-1.7239866957	-0.4255828085	 0.103551
H	-4.1928031554	-0.0686490295	 1.2078607705	 0.141208
H	-2.9648012375	 1.2359162129	 1.0665541429	 0.125762
H	-3.6675109681	 1.2173481806	-1.2311220759	 0.13983
