13
gdb 132164	3.36943	1.38129	0.98054	6.5602	64.7	-0.2112	-0.0217	0.1896	1075.0551	0.090662	-494.092965	-494.085638	-494.084694	-494.124673	28.178	
N	 0.0257896842	 1.3774655458	 0.1545366776	-0.580707
C	-0.0637921284	 0.0091350482	 0.0531678653	 0.184382
C	-1.201469525	-0.7239302874	 0.0279188042	-0.110269
N	-1.1039806263	-2.1149012957	-0.0159031186	-0.360421
C	 0.1125549134	-2.6837057759	-0.0297015393	 0.407948
F	 0.062215663	-4.0079704982	-0.0601781141	-0.064193
N	 1.2396602537	-2.0837257585	-0.0207983911	-0.399229
C	 1.2522387573	-0.6918309027	 0.0066803156	 0.372267
O	 2.2834195505	-0.0418799073	-0.0156525443	-0.377325
H	 0.960754027	 1.7005435476	-0.06367915	 0.270301
H	-0.7234681776	 1.9330418527	-0.2262381273	 0.248729
H	-2.2041106212	-0.3202692193	 0.0466650838	 0.127849
H	-1.9263377906	-2.6961893593	-0.0322986618	 0.280668
