22
gdb 66219	4.1878	0.62675	0.60667	4.1771	87.33	-0.276	0.0372	0.3133	1886.0654	0.193247	-367.227762	-367.217607	-367.216663	-367.263731	37.055	
C	 0.0712587317	 1.5515712634	 0.4056734707	-0.464806
C	 0.0029425674	 0.0719842904	 0.0728317587	 0.384644
C	-1.344545669	-0.4320772965	-0.4247528828	-0.270926
C	-1.7850703304	 0.1744944467	-1.7636948589	-0.180044
C	-3.1219490555	-0.4220930554	-2.2476680571	-0.340194
C	-3.5688808098	 0.1490959293	-3.5162826181	 0.255735
N	-3.9065781291	 0.6123677392	-4.5197242109	-0.305426
C	 1.242245116	-0.5850908893	-0.4910883189	-0.294071
C	 0.8137797306	-0.8713886901	 0.9292929606	-0.313885
H	 1.056280228	 1.8184547687	 0.800284736	 0.116263
H	-0.1074716425	 2.1790188234	-0.4743834672	 0.120672
H	-0.6742776296	 1.8205497649	 1.1637563749	 0.11468
H	-1.2993460779	-1.5241184148	-0.5280695435	 0.09382
H	-2.1126452503	-0.2283820319	 0.3353282492	 0.097165
H	-1.8963388864	 1.2597974771	-1.6759107338	 0.123291
H	-1.0162885407	-0.0012339372	-2.523897336	 0.123105
H	-3.0322209012	-1.5081731005	-2.3693746472	 0.150178
H	-3.905110616	-0.2562455083	-1.4982875248	 0.150966
H	 1.1180575544	-1.3725979341	-1.2275946814	 0.107758
H	 2.1239422272	 0.0276325124	-0.646395883	 0.11194
H	 1.4038173466	-0.4491011681	 1.7358807561	 0.110923
H	 0.4012103867	-1.8504392792	 1.1502084575	 0.108215
