20
gdb 85059	2.33265	1.5525	1.20775	2.0167	76.09	-0.2593	0.0183	0.2776	1120.8057	0.171192	-440.313788	-440.304675	-440.303731	-440.34722	34.762	
C	 0.6454422986	 1.3460931626	-0.4201349197	-0.401316
C	 0.0067452044	 0.0800830383	 0.1390282045	 0.099216
O	-0.0305116619	-0.9350268009	-0.9003578187	-0.246603
C	 0.9592104777	-1.8460330084	-0.7182764686	 0.385643
N	 1.2649133266	-2.7784518526	-1.51575884	-0.557412
C	 1.71210838	-1.5543196414	 0.5701845322	 0.028261
O	 2.9351770932	-0.8890994667	 0.2702595427	-0.432283
C	 0.7553995474	-0.6093999436	 1.3064935437	-0.013673
C	 1.3947051301	 0.309287511	 2.3440165359	-0.419281
H	 1.6950351623	 1.1710654618	-0.6676071191	 0.143296
H	 0.1136417511	 1.6609043789	-1.3221028894	 0.124579
H	 0.5890991899	 2.1588827647	 0.3100791679	 0.119685
H	-1.0373549887	 0.2752843943	 0.4020745615	 0.089367
H	 0.6775481833	-2.75032439	-2.3515153414	 0.222082
H	 1.9026350443	-2.4801926968	 1.1254922577	 0.091421
H	 3.384214096	-1.4283077679	-0.391897143	 0.296748
H	 0.0219343754	-1.2543599769	 1.8063663534	 0.089168
H	 2.1925923175	 0.9108370542	 1.9059472935	 0.14525
H	 0.6492462344	 0.9813174102	 2.7816492833	 0.113933
H	 1.8293102683	-0.2786885608	 3.1580892836	 0.121916
