17
gdb 123489	4.97128	0.96794	0.89977	2.7514	74.16	-0.2298	0.0081	0.2379	1302.0997	0.138667	-414.175747	-414.168001	-414.167057	-414.209347	28.315	
C	-0.0561912857	 1.5424586445	-0.27878101	-0.255105
N	-0.1165850005	 0.0788335692	-0.2747551432	-0.06217
C	-0.2050779052	-0.5462661096	 1.0412149544	-0.215624
C	-1.3909412675	-0.4974824346	 0.1413928186	-0.221406
C	 1.3535258482	 2.0193632036	-0.1212618872	 0.361054
N	 1.8478163383	 2.370862344	 1.0586006505	-0.264094
N	 3.1251934102	 2.6948781671	 0.7495956903	-0.175983
C	 3.340239605	 2.5356192772	-0.571928192	 0.014195
N	 2.240928463	 2.1096557093	-1.1577347657	-0.288881
H	-0.4438196577	 1.8912890576	-1.2407592955	 0.122886
H	-0.6669912629	 1.9873353681	 0.5242354454	 0.098551
H	 0.357999188	-1.4670799499	 1.1629292768	 0.11504
H	-0.2107261834	 0.1036970248	 1.9141807958	 0.120361
H	-2.1951616024	 0.1838122585	 0.4161401486	 0.10739
H	-1.7105440709	-1.3799249999	-0.405529554	 0.116546
H	 3.7512950663	 3.0157113485	 1.4696118918	 0.281486
H	 4.2874821973	 2.7422461318	-1.0473121248	 0.145755
