18
gdb 23577	2.72644	1.53892	1.21182	1.5489	78.99	-0.2241	0.0282	0.2523	1067.7872	0.147311	-401.855153	-401.847202	-401.846257	-401.887427	31.295	
C	 0.0969791096	 1.6031829677	 0.0905144259	-0.418636
C	 0.1224344866	 0.0834043849	 0.0292419201	 0.024222
C	 0.821677879	-0.6508128702	-1.124820286	-0.088433
C	 1.2907976912	-1.7500996062	-0.2265000956	-0.086108
C	 2.3240342743	-0.7597113497	-0.7745803166	-0.158067
C	 2.4656782935	-0.1884199875	 0.5848687093	 0.491279
N	 3.4617059651	 0.3276486045	 1.1724168594	-0.318214
O	 3.1612056892	 0.5854889175	 2.5349005072	-0.405663
C	 1.0908664685	-0.7171203396	 0.9657703875	-0.177825
H	 1.1016083223	 2.0238770144	-0.0137864933	 0.131645
H	-0.5276798068	 2.0138081315	-0.7102525232	 0.113072
H	-0.314494231	 1.9493929905	 1.0448125739	 0.119671
H	-0.887638413	-0.3264381269	 0.1407561305	 0.076229
H	 0.5100768108	-0.7262088981	-2.1597246159	 0.091508
H	 1.2686016636	-2.827781476	-0.2787976788	 0.106088
H	 3.0808678673	-0.9224222106	-1.5283206363	 0.102871
H	 3.996153159	 0.943115555	 2.85343133	 0.302502
H	 0.8431407508	-0.9369622013	 1.9994265621	 0.09386
