22
gdb 16833	3.359	1.721	1.35827	0.2757	81.05	-0.2603	0.0862	0.3465	1020.5581	0.201802	-313.08404	-313.075981	-313.075037	-313.11587	32.155	
C	-0.0395042108	 1.5773692031	 0.0125066546	-0.397383
C	 0.0451806423	 0.0497698556	 0.0231132949	 0.031141
C	 0.8055450044	-0.5493843951	-1.1843757698	-0.243143
C	 1.3219168301	-1.9328662032	-0.7212354592	 0.031142
C	 2.5437940213	-2.4342205285	-1.4935714581	-0.397383
C	 1.5344017737	-1.7596355679	 0.7817745193	-0.03514
C	 2.2655818087	-0.5230501854	 1.2498006047	-0.292565
C	 0.7549702745	-0.5492624081	 1.2361890968	-0.035141
H	 0.9603458854	 2.0242832311	 0.046692383	 0.112376
H	-0.5394733916	 1.9419054523	-0.8916016314	 0.108027
H	-0.6002001591	 1.9511023686	 0.8759950064	 0.108678
H	-0.9781044398	-0.3521493846	 0.018415895	 0.068062
H	 0.1787371352	-0.6173509431	-2.0784660112	 0.09192
H	 1.6526384318	 0.0957436838	-1.4497583094	 0.094098
H	 0.5099716104	-2.6629748241	-0.8491420346	 0.068062
H	 3.391219755	-1.7506089301	-1.3705031002	 0.112376
H	 2.8598218938	-3.4219721873	-1.1412336854	 0.108679
H	 2.331171166	-2.5158747394	-2.5652019423	 0.108027
H	 1.5972936241	-2.6521426721	 1.3960633114	 0.073515
H	 2.7516024019	-0.5735717816	 2.2180117178	 0.104991
H	 2.7970343508	 0.089884716	 0.5287659917	 0.106146
H	 0.2363579919	-0.53875248	 2.1895019661	 0.073515
