19
gdb 39978	3.5817	1.56205	1.39717	2.2322	77.64	-0.2327	0.0734	0.3061	979.0925	0.162784	-382.010185	-382.003411	-382.002467	-382.041174	28.202	
C	 0.0257930787	 1.5164445268	-0.0151423849	-0.308391
N	 1.2521250004	 0.6969227988	 0.0598919275	-0.362023
C	-0.0609195727	 0.0396685221	 0.0142041017	 0.394888
C	-0.469827014	-0.8088930677	 1.2218062462	-0.326882
C	-0.6958330944	-2.1784763824	 0.5921852773	-0.02196
C	-1.6927141988	-2.3505716452	-0.4961641116	-0.035034
C	-2.0227065163	-1.0378704082	-1.1910745335	-0.256978
C	-0.491645255	-0.7728615677	-1.1831209868	-0.089119
N	-0.2149777599	-2.2339374479	-0.813802002	-0.151787
H	-0.1925371141	 2.0939495105	 0.8794300019	 0.118723
H	-0.2073547068	 2.0278594255	-0.9467149284	 0.109287
H	 1.702412483	 0.6565116053	-0.8519824396	 0.230674
H	 0.3386617275	-0.8332937286	 1.9560235231	 0.125857
H	-1.3683392595	-0.4264655065	 1.7177640981	 0.10749
H	-0.452584678	-3.0652716116	 1.1685700975	 0.094159
H	-2.2272526011	-3.2856941794	-0.6352528566	 0.089639
H	-2.3964328804	-1.2055708101	-2.2032727817	 0.112387
H	-2.6751942937	-0.3201077292	-0.6827359266	 0.099738
H	-0.0366473148	-0.4729352445	-2.1284049517	 0.069332
