18
gdb 89045	3.01337	1.15726	1.01964	4.0087	68.16	-0.2265	0.0444	0.2708	1211.4064	0.147649	-476.245942	-476.236885	-476.235941	-476.279932	33.812	
N	 0.0476218642	 0.6105057356	-0.6249379722	-0.55858
C	-0.2330535014	-0.6689705473	-0.264799178	 0.506904
O	 0.3508381733	-1.6429682056	-0.7099965027	-0.418511
O	-1.2150752678	-0.6956665773	 0.6524425635	-0.246177
C	-1.5180361009	-1.9863130127	 1.2404551866	-0.117133
C	-2.5661885312	-2.7964826293	 0.5075211422	-0.073155
C	-2.6916345818	-2.7910375232	-1.0129220763	-0.339743
C	-2.1012061508	-3.9836846377	-0.3281141873	 0.144095
O	-0.7502388603	-4.2832683316	-0.4245788758	-0.432886
H	 0.6468604095	 0.7482941357	-1.4190873426	 0.274286
H	-0.5549331916	 1.3567132633	-0.3253149631	 0.271098
H	-0.5847873146	-2.5488674616	 1.3235978133	 0.138556
H	-1.8710008971	-1.7381391202	 2.242343856	 0.115846
H	-3.5008667864	-2.911211669	 1.0470791587	 0.086814
H	-3.6925060454	-2.8566873441	-1.4260965258	 0.110057
H	-2.016052769	-2.163928473	-1.5823197378	 0.128872
H	-2.6882986139	-4.894908788	-0.2728058035	 0.098
H	-0.262473415	-3.4690943941	-0.6354651252	 0.311657
