20
gdb 91182	2.19686	1.74059	1.54503	1.8575	77.7	-0.2402	0.0223	0.2625	1020.6255	0.171506	-403.167119	-403.158748	-403.157804	-403.199984	32.355	
C	 0.2700289039	 1.5854340455	-0.0083448567	-0.403875
C	 0.0683387832	 0.0780161231	 0.0515141245	-0.021866
C	 0.8854931903	-0.8117653085	-0.9433479302	-0.246746
C	 1.4397662238	-1.6419761261	 0.2485243936	-0.049939
N	 2.8699113271	-1.4431721852	 0.5157340885	-0.265004
C	 2.9211014336	-0.5360580054	 1.4010342681	 0.100008
O	 1.780763002	 0.00469531	 1.8997894389	-0.259525
C	 0.6866537323	-0.7076889196	 1.2494415078	 0.382952
C	-0.2371241297	-1.2564141412	 2.3130113623	-0.464274
H	 1.3270370829	 1.8493852325	 0.0849962178	 0.123972
H	-0.0957263237	 1.9811637002	-0.9618178874	 0.114698
H	-0.2714011644	 2.0945261411	 0.7960821485	 0.117254
H	-1.0014097958	-0.1488503487	-0.0104916319	 0.071727
H	 0.2866539982	-1.3697578575	-1.6667885047	 0.101621
H	 1.6751020673	-0.2784524304	-1.4783230147	 0.108344
H	 1.1863725433	-2.7047577946	 0.2512063926	 0.07753
H	 3.8301354325	-0.1255794421	 1.8278611633	 0.136569
H	-0.7036166127	-0.4461195584	 2.8832215932	 0.128693
H	-1.0326041449	-1.8519445035	 1.8543434555	 0.120117
H	 0.3120657607	-1.8951143911	 3.011730131	 0.127745
