17
gdb 54919	4.95071	0.86444	0.80446	5.1281	73.81	-0.2554	-0.0368	0.2186	1404.744	0.135245	-418.016859	-418.00776	-418.006815	-418.051766	31.94	
C	-0.1950748992	 1.5362962671	 0.2068368243	-0.482749
C	 0.0325351515	 0.0475330645	 0.0561798933	 0.374082
O	 1.1346705889	-0.4541238421	 0.0737167831	-0.303799
C	-1.2128095933	-0.8190383347	-0.1113733645	-0.071001
C	-1.6983676292	-0.9058891489	-1.5920074561	-0.267415
C	-1.0301910104	-2.3121318042	-1.6011120529	-0.108594
N	-0.9474604095	-2.2687685987	-0.1194283515	-0.307022
C	-1.8123404582	-3.4209640214	-2.1482719604	 0.296178
N	-2.4342752202	-4.2831628018	-2.601251725	-0.319414
H	 0.7481066158	 2.0734516332	 0.102835041	 0.152011
H	-0.9240971941	 1.9039278426	-0.5227822303	 0.141697
H	-0.6129914865	 1.7363952734	 1.2007979433	 0.154711
H	-1.9754618812	-0.5055271455	 0.6116629066	 0.100143
H	-2.7831535766	-0.9471120606	-1.6830373032	 0.14369
H	-1.2952723695	-0.1803278635	-2.299043137	 0.127609
H	-0.054576467	-2.2950668671	-2.1013214629	 0.130447
H	-0.0174935013	-2.4875694423	 0.2295250622	 0.239426
