16
gdb 52521	3.87864	0.83486	0.69296	5.1605	79.22	-0.2607	-0.0579	0.2028	1569.863	0.121487	-437.913705	-437.903409	-437.902465	-437.952955	33.652	
C	-0.0402749853	 1.4856614488	 0.0361784401	-0.507813
C	 0.0171848783	 0.0347296342	 0.0208502297	 0.183389
C	 0.056558909	-1.1705612769	 0.0080469692	-0.075775
C	-0.0044743884	-2.6148364804	-0.0051311003	 0.283375
O	-1.0575371209	-3.2190251172	 0.0103132228	-0.336474
N	 1.2416292328	-3.2593597091	-0.0371783991	-0.148318
C	 2.5020127071	-2.5186806201	-0.055440051	-0.351031
C	 1.2786719901	-4.6546602089	-0.0521684609	 0.17333
O	 2.3019651494	-5.2949475914	-0.0797188878	-0.320387
H	 0.9612301909	 1.9273864772	 0.0482008801	 0.160877
H	-0.5674235203	 1.8597339072	-0.8480066046	 0.168783
H	-0.5809746403	 1.8411055487	 0.9198125823	 0.168809
H	 2.6010829024	-1.8982312714	 0.8383145531	 0.143276
H	 3.3010888688	-3.2587533881	-0.079326182	 0.173046
H	 2.5646937169	-1.8801160299	-0.9396752164	 0.143284
H	 0.2709369497	-5.0877293229	-0.0360401753	 0.141628
