17
gdb 37183	3.59938	1.73982	1.62741	2.4996	70.69	-0.2189	0.0705	0.2894	873.4445	0.138839	-417.870414	-417.86435	-417.863406	-417.900393	26.482	
C	 0.0912274197	 1.5065239359	 0.225551696	-0.272549
N	 1.5588632958	 1.4209428252	-0.1061876205	-0.333049
C	 1.3209767634	 0.2080882882	-0.9499965251	-0.017367
C	 1.4764978604	-1.2046803574	-0.3587683467	 0.036755
O	 0.7225034731	-0.7704533956	 0.809480245	-0.32675
C	-0.0146018048	 0.0440909883	-0.198499174	 0.402242
C	-0.8147478117	-1.0377810956	-0.9137678579	-0.178141
N	-0.2865700213	-1.2991324827	-2.2768842701	-0.336509
C	 0.3266960424	-1.9787159503	-1.1084003314	-0.036589
H	-0.1233616584	 1.7255685248	 1.2748110383	 0.120076
H	-0.4778138246	 2.1810870683	-0.4269187782	 0.103766
H	 1.8799910149	 2.2006736193	-0.6688502394	 0.220483
H	 1.3838081138	 0.3515991949	-2.0258215741	 0.103196
H	 2.3963429761	-1.7463459727	-0.1316046779	 0.076669
H	-1.8104042393	-1.3525740868	-0.6269557469	 0.102116
H	-0.9032046191	-1.9617937654	-2.7453572997	 0.233121
H	 0.2308546598	-3.0514108983	-0.9897113373	 0.10253
