16
gdb 11878	4.82365	1.54098	1.31713	3.0892	65.04	-0.2424	0.0332	0.2757	924.2336	0.132709	-379.939838	-379.932815	-379.931871	-379.971337	26.738	
O	 0.0115076707	-0.0343398339	 0.1069196805	-0.377596
C	-0.0336426393	 1.1752894715	 0.1108877304	 0.416291
C	-1.2900450088	 2.0574997884	 0.093452771	-0.432257
C	-0.7709828191	 3.4578207279	 0.3792767747	 0.329914
C	-1.6000025137	 4.6781835777	 0.302319703	-0.294494
N	-1.1353064259	 4.1735323193	 1.610968778	-0.341515
C	 0.7222648135	 3.4404300859	 0.0376299627	-0.212443
N	 1.0393942141	 2.0249068365	 0.1122854484	-0.312442
H	-1.7473213066	 1.9766788793	-0.8997341286	 0.136538
H	-2.0217578346	 1.6976500192	 0.8211551007	 0.130254
H	-1.1581363689	 5.6232625111	-0.0042218601	 0.119865
H	-2.6486920015	 4.5659852417	 0.0378597219	 0.115672
H	-1.8954955403	 3.6903531574	 2.0845408011	 0.231427
H	 0.9137033945	 3.8470907499	-0.966137206	 0.107234
H	 1.2858062844	 4.0301889265	 0.7663326917	 0.130446
H	 1.9741618414	 1.6578777515	 0.0310704806	 0.253106
