21
gdb 99162	3.38951	0.89088	0.78032	3.2549	79.76	-0.2372	-0.008	0.2293	1541.5884	0.180813	-424.233189	-424.223222	-424.222278	-424.269633	34.97	
C	 0.7139678458	 1.2782704762	-0.1731200962	-0.377567
C	 0.7682921061	-0.1956018266	 0.2157629833	-0.285809
C	 0.2255526805	-0.4850717175	 1.6028550907	 0.385822
O	-0.2460964815	 0.3710689879	 2.3170010552	-0.314539
C	 0.3568023656	-1.9265779699	 2.0962964215	-0.310696
C	 1.6283054571	-2.0835835269	 2.9285431813	 0.167457
C	 2.0649033209	-3.5086613255	 3.3355164023	-0.301998
C	 3.3629476397	-3.1749711454	 2.5739657596	-0.059678
O	 2.8329373546	-1.9032632401	 2.14108617	-0.292766
H	 1.2999372478	 1.8853468611	 0.5218596631	 0.131046
H	 1.1100029703	 1.428547837	-1.1813848026	 0.107408
H	-0.3124454698	 1.6532584012	-0.1441728327	 0.127989
H	 0.2070098803	-0.8186763614	-0.4959459062	 0.11529
H	 1.7925032392	-0.592919102	 0.1942515367	 0.147132
H	-0.5044080334	-2.1485884717	 2.7349333827	 0.122512
H	 0.3824630493	-2.6355049942	 1.2620692063	 0.099264
H	 1.6022675868	-1.368752644	 3.7613639691	 0.096663
H	 2.164145968	-3.6912243697	 4.4061734376	 0.116127
H	 1.4658233908	-4.3045018238	 2.8881479768	 0.112523
H	 4.2521150277	-3.049264878	 3.2039172163	 0.106701
H	 3.6172611244	-3.8225117769	 1.7272791851	 0.10712
