12
gdb 131603	4.74343	1.08779	0.88974	4.5407	57.84	-0.3121	-0.1024	0.2097	1176.2373	0.075729	-502.064023	-502.056082	-502.055138	-502.097585	26.595	
O	 0.0445334381	 1.3976526768	 0.0089617223	-0.391248
C	-0.0083488804	 0.0006592697	 0.002867076	-0.190231
C	-1.4718902134	-0.395413572	 0.0138503838	 0.462477
O	-2.4185172256	 0.3198771008	 0.0252435266	-0.222511
N	-1.6582530958	-1.84617034	 0.0086773518	 0.045539
N	-0.6586481799	-2.7323005994	-0.0051818676	-0.103556
N	-1.2236192947	-3.8866985195	-0.0045580739	-0.070231
N	-2.5784486304	-3.7145138073	 0.0080607253	-0.061759
N	-2.8460387596	-2.4571499157	 0.0157674846	-0.071653
H	 0.9691953332	 1.6620920548	-0.0005540371	 0.306146
H	 0.4572987211	-0.4564165974	-0.8846074543	 0.148536
H	 0.4727359875	-0.4646375808	 0.8777733823	 0.148492
