17
gdb 39956	4.31943	1.1346	1.0275	0.3892	76.15	-0.245	-0.0084	0.2366	1168.1448	0.135463	-421.793676	-421.786105	-421.78516	-421.826422	29.438	
C	-0.2755238188	 1.4964263917	 0.0510212955	-0.244606
O	 1.0511257493	 1.0000731291	-0.1288610204	-0.276594
C	-0.0206633113	 0.0493207417	-0.003828116	 0.405325
C	-0.0278068454	-0.8792344188	 1.2151103299	-0.405371
C	-0.3605837952	-2.2588348342	 0.6371491945	 0.405326
C	 0.0173111181	-3.5355651647	 1.2610345591	-0.244606
O	-1.3305278496	-3.0685722277	 1.3240458351	-0.276594
C	-0.5252419331	-2.0731448379	-0.82997507	-0.151508
C	-0.3357302118	-0.800792535	-1.1836952922	-0.151508
H	-0.4765282582	 1.9635653583	 1.0151056138	 0.114508
H	-0.7078138259	 2.0084282118	-0.8086657818	 0.112989
H	 0.9503602268	-0.8536738439	 1.7021252944	 0.129455
H	-0.784155591	-0.5975396279	 1.9521536294	 0.129455
H	 0.1818578575	-4.4184093571	 0.643302446	 0.112989
H	 0.5639355044	-3.5240126135	 2.2039812538	 0.114508
H	-0.779561581	-2.8952006758	-1.4879657916	 0.113116
H	-0.3825436648	-0.395813726	-2.1872921693	 0.113116
