17
gdb 85210	2.61862	1.28909	0.96717	2.4647	70.34	-0.2623	0.013	0.2753	1201.9478	0.135647	-455.193646	-455.184539	-455.183595	-455.22822	32.355	
C	-0.129518193	 1.4052606501	 0.3053787805	-0.400574
C	 0.0540511287	-0.0976537582	 0.1950892266	 0.056934
N	 0.935612357	-0.5577582592	-0.8969026826	-0.337531
C	 1.922724473	-1.0631678563	-0.0991724799	 0.403217
O	 3.0215899531	-1.5077898269	-0.3047693163	-0.366897
C	 1.0817292711	-0.7784821301	 1.1712516354	-0.117028
N	 1.7715623435	 0.015196278	 2.1525396633	-0.284899
C	 1.1903722952	 0.3526064768	 3.3354917696	 0.152351
O	 0.0286783668	 0.1348562596	 3.6081645989	-0.323855
H	 0.83505935	 1.9194435199	 0.3347184546	 0.117352
H	-0.6996291174	 1.7891888525	-0.5468163419	 0.117416
H	-0.6794421065	 1.6413148293	 1.2205488246	 0.152917
H	-0.9149427495	-0.6068188361	 0.1919639815	 0.096369
H	 0.8899229823	-0.4416223052	-1.8988429814	 0.254362
H	 0.6639607048	-1.680848481	 1.6266118439	 0.127867
H	 2.7644328432	 0.149947661	 2.0323422915	 0.265356
H	 1.8948909377	 0.8627131056	 4.0206612415	 0.086643
