15
gdb 33287	6.45895	0.72353	0.72155	1.9613	92.06	-0.242	-0.0358	0.2062	1553.4637	0.110617	-383.362348	-383.354342	-383.353398	-383.395277	30.484	
C	 0.0319314733	-3.6962353397	-0.0543786562	-0.599304
C	 0.0233593341	-2.4887845559	-0.0331811446	 0.19388
C	 0.0147766543	-1.1303794266	-0.0072823666	 0.342717
C	 0.0053316409	 0.0805353491	 0.0127688417	-0.081422
C	 0.0158843405	 1.5064136417	 0.0745585905	 0.218599
C	-0.6769147111	 2.4565340107	 1.0993768404	-0.249394
C	-0.0885745857	 3.2979121758	-0.054901245	 0.006742
C	 1.2256943439	 2.4893127595	 0.0177834421	-0.249393
O	-0.619405927	 2.3038511062	-1.0188012425	-0.332707
H	 0.0379752413	-4.7578773054	-0.0756406672	 0.194411
H	-1.7641481031	 2.3846343297	 1.1179455977	 0.120348
H	-0.2278703394	 2.5425098476	 2.0914183878	 0.104065
H	-0.2405398483	 4.3493641613	-0.2903535025	 0.107047
H	 1.8461506634	 2.5782414525	 0.9123808342	 0.104065
H	 1.7992948231	 2.4460245134	-0.9077970397	 0.120348
