24
gdb 14871	3.39676	1.20481	0.97921	0.1126	85.44	-0.2783	0.0848	0.3631	1319.2054	0.22345	-314.272822	-314.263299	-314.262354	-314.30694	35.568	
C	 0.0820557761	 1.7315504825	-0.1012956078	-0.382546
C	-0.3195724187	 0.2718208906	-0.3423051328	-0.197754
C	 0.7121991707	-0.4916217495	-1.1649264135	 0.051882
C	 2.1075990304	-0.7945016053	-0.5491053856	-0.224469
C	 2.083433347	-2.1743625488	-1.2578789291	-0.225747
C	 0.5433719001	-2.0234940779	-1.4533504895	 0.000077
C	-0.2975278194	-2.8140698666	-0.4478391668	-0.173181
C	-0.3357508407	-4.3143137646	-0.7581404569	-0.385843
H	 1.0386349483	 1.7965119308	 0.4285357989	 0.117665
H	 0.1924106168	 2.272926276	-1.047691347	 0.111784
H	-0.6665734921	 2.2583679429	 0.4987115182	 0.108899
H	-0.4676373314	-0.226843601	 0.6237032842	 0.092439
H	-1.2911025706	 0.2412375042	-0.8539314593	 0.091237
H	 0.8505964095	 0.0271893068	-2.1222579022	 0.062919
H	 2.9294564825	-0.1157307781	-0.7900545913	 0.091385
H	 2.0543482809	-0.8927220115	 0.5403544471	 0.095163
H	 2.625064595	-2.1592319746	-2.2076934799	 0.095875
H	 2.4278478931	-3.0380949796	-0.6819194673	 0.091226
H	 0.1827388059	-2.2516713187	-2.4630173957	 0.055459
H	 0.0922075799	-2.6630473634	 0.5675258978	 0.091682
H	-1.3225017627	-2.4221803492	-0.4407964571	 0.093711
H	-0.7748597143	-4.5002834292	-1.744786922	 0.112442
H	 0.6692482607	-4.7496227789	-0.7584019683	 0.116721
H	-0.932525407	-4.8588776969	-0.0195965141	 0.108977
