20
gdb 59106	2.09557	1.60017	1.01505	4.0487	75.82	-0.2296	0.0069	0.2365	1216.4474	0.169303	-440.29852	-440.288896	-440.287952	-440.33297	34.991	
C	 0.1741792186	 1.3194454553	-0.3683706193	-0.403294
C	-0.1074501371	-0.0420103087	 0.2257840052	 0.116051
O	 0.3298136781	-1.1126929383	-0.6932474164	-0.249613
C	 1.2651129915	-1.5716814045	 0.1855884825	 0.457248
O	 2.0618183853	-2.4396706788	 0.0137575352	-0.332031
C	 0.8521926933	-0.6106654822	 1.3129861512	-0.167919
N	 1.8737204837	 0.248869135	 1.8662686495	-0.073721
C	 1.3219357876	 1.1340433007	 2.884603278	-0.322465
C	 3.0134544022	-0.5030399217	 2.3908219917	-0.33063
H	 1.2488898907	 1.4832233017	-0.4691208385	 0.143048
H	-0.2962195987	 1.3925739422	-1.3531159349	 0.135335
H	-0.2410859788	 2.1105497109	 0.2631336669	 0.12471
H	-1.1683325571	-0.1844963115	 0.4467458983	 0.097002
H	 0.2932539471	-1.1700305365	 2.0883716652	 0.088012
H	 0.9424835637	 0.5837294375	 3.7666387721	 0.09806
H	 2.0977446916	 1.8264699912	 3.2240009427	 0.126553
H	 0.4987963171	 1.7243147349	 2.4733628502	 0.120008
H	 3.4195873304	-1.1591813485	 1.6208110602	 0.159196
H	 3.7894454843	 0.2028049115	 2.7014445404	 0.119082
H	 2.7460381765	-1.1234107602	 3.26632162	 0.095369
