13
gdb 3785	7.69837	1.94875	1.57531	4.071	55.77	-0.2106	-0.0024	0.2082	745.042	0.103085	-340.613243	-340.606938	-340.605994	-340.643505	22.754	
C	 0.0035672576	 1.4337620897	 0.0364561871	-0.330298
N	-0.1542724675	-0.0073041567	-0.060017809	-0.386877
C	 0.555555175	-0.6590620635	-1.0610855854	 0.178882
C	 1.2064920312	-0.1556466629	-2.1501523915	-0.005963
O	 1.7030238375	-1.16581456	-2.9025600628	-0.17061
N	 1.3945873783	-2.3693695386	-2.3045561805	-0.126898
C	 0.7157557977	-2.068515822	-1.2259835999	-0.043595
H	 1.0524368953	 1.7543190077	 0.1453280697	 0.114433
H	-0.4019094191	 1.9069685106	-0.8646990279	 0.136681
H	-0.5668412328	 1.8021597657	 0.8917024118	 0.129528
H	-0.0928185807	-0.4749881987	 0.8329802788	 0.240235
H	 1.3878933683	 0.8398125529	-2.5183699624	 0.139714
H	 0.354341359	-2.8621056942	-0.5865874079	 0.124769
