16
gdb 34710	3.13341	1.70195	1.5152	1.6429	77.73	-0.2305	-0.0029	0.2276	913.105	0.125139	-363.523374	-363.516524	-363.51558	-363.554385	28.03	
C	-0.0369066743	-1.2729748485	-0.1079530035	-0.44458
C	-0.0013287826	-0.0759890019	-0.0004782498	 0.358151
C	 0.0222165042	 1.3710854497	 0.0945727344	-0.155039
C	-0.2971460993	 2.117181703	 1.4637408387	-0.126711
C	 0.2628182823	 1.259822424	 2.5663003297	-0.09763
C	 1.5963297397	 1.2257517212	 2.4464389008	-0.068347
C	 2.0166832559	 2.1435376917	 1.3590905961	-0.058425
C	 0.8840645874	 3.0294600371	 1.0259538337	-0.053777
N	 1.3421120788	 2.0699241239	-0.0277429541	-0.163261
H	-0.0612261412	-2.3307599568	-0.198919603	 0.197066
H	-0.6043209253	 1.8047679839	-0.6904050023	 0.120072
H	-1.3034341851	 2.5132061786	 1.5819990565	 0.079676
H	-0.3452673765	 0.6258564822	 3.1986792032	 0.108355
H	 2.2838599062	 0.5975329174	 2.9971920616	 0.104687
H	 3.0421080483	 2.4724343367	 1.2470721648	 0.101576
H	 0.9009091216	 4.1068622979	 0.8989006132	 0.098187
