16
gdb 77128	2.85399	1.29742	1.10376	3.7878	65.73	-0.2555	-0.0321	0.2234	1121.7267	0.121836	-475.054132	-475.044724	-475.04378	-475.089789	32.742	
C	 0.0294773459	 1.481677684	 0.0426352242	-0.489015
C	-0.1095530495	-0.0231114507	 0.0458688532	 0.377593
O	-0.328014977	-0.6706129977	 1.0440401733	-0.301804
C	-0.0162522846	-0.698292656	-1.3172461572	-0.13524
N	-0.0713700645	-2.1572084362	-1.2952825296	-0.307294
C	-1.3762583911	-2.2615439673	-1.7264322516	 0.370903
O	-2.1695909381	-3.1602260286	-1.7571599357	-0.342189
C	-1.4200355872	-0.7425602407	-2.0660304756	-0.007525
O	-2.4858638829	 0.0077675113	-1.5721587987	-0.413168
H	 0.9639491289	 1.7896363615	-0.4383961925	 0.138599
H	-0.7951214411	 1.905939254	-0.5421969556	 0.165446
H	-0.0082401744	 1.8627698244	 1.0635810614	 0.147187
H	 0.8064617118	-0.2834339669	-1.90891938	 0.09809
H	 0.4230797831	-2.7803377038	-0.6717211026	 0.262551
H	-1.3196431669	-0.5230460254	-3.1314208278	 0.127222
H	-2.8635331722	-0.4498287718	-0.8117690053	 0.308644
