13
gdb 133289	5.05144	1.07409	0.89064	1.6294	67.39	-0.2584	-0.1043	0.1542	1194.6575	0.087487	-493.992589	-493.984819	-493.983875	-494.025759	27.368	
C	-0.0258521464	 1.4257312105	-0.2240072637	-0.330815
N	-0.0124878418	-0.0281371021	-0.2156507046	-0.30143
C	-1.0533807928	-0.6425855357	 0.1638949743	 0.419865
O	-2.1965767397	 0.0144561597	 0.5675427847	-0.287014
N	-3.332537905	-0.7005042515	 0.9855898615	-0.153055
C	-3.20892819	-1.9735126799	 0.95442612	 0.399498
F	-4.2593431382	-2.66143317	 1.3413093301	-0.040572
N	-2.1401122369	-2.7592891478	 0.576345178	-0.274501
C	-1.107042364	-2.0969677992	 0.1971940795	-0.011441
H	 0.9447066207	 1.789649719	-0.5649571519	 0.130968
H	-0.806309379	 1.8162009208	-0.8902748809	 0.139929
H	-0.2286239639	 1.8327237957	 0.7752897362	 0.139788
H	-0.2115650829	-2.6254149395	-0.1206723232	 0.16878
