17
gdb 79478	2.2509	1.92741	1.23611	4.4523	77.82	-0.2553	-0.0009	0.2543	1028.1762	0.136512	-380.787152	-380.779597	-380.778653	-380.819063	29.269	
C	-0.1751495424	 1.6142848259	-0.0098350411	-0.435006
C	-0.0269857056	 0.104475554	 0.0065909883	-0.046798
C	 1.1976086738	-0.5632487856	-0.6353925042	-0.034512
C	 2.164824437	-0.2487632464	 0.5479447291	-0.111716
C	 2.5211565035	-1.7270681147	 0.6296377547	-0.196727
N	 1.0398856627	-1.8240533995	 0.2656700224	-0.178276
C	 0.7524642901	-0.5716576638	 1.1522326319	 0.260405
C	 0.4002591922	-0.6907349528	 2.5436391171	 0.171367
N	 0.1154083814	-0.7563257025	 3.6627177144	-0.344872
H	 0.769813265	 2.1197332283	 0.2131374008	 0.122845
H	-0.5153096912	 1.9560678914	-0.9925635326	 0.129276
H	-0.9137120165	 1.9398721139	 0.7293020444	 0.138707
H	-0.9652686326	-0.4128874837	-0.2191228322	 0.102111
H	 1.4606276759	-0.6801235875	-1.6866805098	 0.097628
H	 2.7693911779	 0.6449928507	 0.7236347989	 0.088509
H	 3.1776863628	-2.1370036393	-0.1431754488	 0.112372
H	 2.7592699461	-2.1518828585	 1.6087794766	 0.124687
