18
gdb 71758	3.38509	1.90097	1.59357	0.4792	73.94	-0.2205	0.0662	0.2866	875.499	0.150239	-401.872637	-401.866312	-401.865368	-401.902816	27.376	
O	-0.0843236124	 1.421572552	-0.0467592037	-0.482813
C	-0.0106992605	 0.0365213012	-0.0731229142	 0.403917
C	 0.4746411474	-0.811793414	-1.2640750343	-0.309956
C	-0.2921770393	-1.9250523611	-0.5268542481	-0.007986
C	-1.2869596689	-0.850066127	 0.086979695	-0.104948
C	-1.0376561742	-1.0886177419	 1.6074355323	-0.062906
C	-0.5631287568	-2.5392925798	 1.7173510682	-0.185829
N	 0.5085234988	-2.1941056697	 0.7075416058	-0.140047
C	 0.4266867425	-0.7352131367	 1.2108899029	-0.085149
H	 0.8087347732	 1.7736421865	 0.0429118284	 0.281457
H	-0.0236261481	-0.5096519998	-2.1890690618	 0.104833
H	 1.5457699909	-0.9619509733	-1.4267933638	 0.097383
H	-0.6321299637	-2.8292017994	-1.0288035162	 0.073491
H	-2.2467608866	-0.6367721404	-0.376876179	 0.073614
H	-1.6414165837	-0.5624598528	 2.3453905225	 0.072412
H	-0.0996231859	-2.7723294853	 2.6802019516	 0.105572
H	-1.2301070693	-3.3557155868	 1.4186614422	 0.097414
H	 1.2272640368	-0.4298049816	 1.8841915421	 0.069544
