19
gdb 110244	2.27902	1.31747	0.95291	3.1112	76.72	-0.2395	0.0108	0.2502	1259.4616	0.158286	-422.972106	-422.963022	-422.962078	-423.006892	33.423	
C	-0.1049604758	 1.5597985716	 0.1665789283	-0.448815
C	-0.0184125393	 0.036120624	 0.1705938194	 0.045387
C	 0.9892208741	-0.7332695752	-0.7632500274	-0.224462
C	 2.1361405759	-0.5036927144	 0.2994595099	 0.014547
C	 2.9583767898	 0.7849875011	 0.4572982282	-0.132108
O	 4.1662907557	 0.5181292343	 1.1569492359	-0.412551
C	 0.8627060194	-0.8090017825	 1.1770525603	-0.226378
C	 0.6453190129	-1.9266690406	 0.1439215583	 0.45257
O	 0.3659264412	-3.0830611935	 0.0810551402	-0.325257
H	 0.8308612082	 2.0649850994	-0.0665307089	 0.130951
H	-0.8320160225	 1.8699597901	-0.591253822	 0.125709
H	-0.4654083053	 1.9325740439	 1.1315443556	 0.124517
H	-1.0399568044	-0.3546070361	 0.1061539428	 0.092738
H	 1.0654598313	-0.6905603397	-1.84833545	 0.090971
H	 2.8754617697	-1.3121041686	 0.2966501087	 0.102269
H	 3.2680138682	 1.154057244	-0.5263202923	 0.120297
H	 2.4022909858	 1.5837799871	 0.9561162645	 0.100381
H	 3.9390143754	 0.2934665856	 2.0650360194	 0.283987
H	 0.7858334297	-0.8522925906	 2.2626284893	 0.085246
