21
gdb 38602	3.44858	1.65782	1.41368	0.2345	85.29	-0.2545	0.092	0.3466	993.7245	0.18702	-349.909084	-349.902618	-349.901673	-349.939478	28.465	
C	 0.0024539454	 1.5431468581	-0.1221220721	-0.296543
C	 1.3072516436	 0.7896020253	-0.0279752589	-0.019273
C	 2.1146460109	 0.7662003712	 1.2614414954	-0.280825
C	 1.422497151	 0.0010055063	 2.387214892	 0.043015
C	-0.1092823153	 0.1902490075	 2.6422312195	-0.075306
C	-0.0847706002	-1.1789030248	 3.3727437887	-0.238809
C	 0.7575022894	-1.3844470947	 2.0875993068	-0.064975
C	-0.3607126043	-0.5995715004	 1.3167808422	 0.026568
C	 0.0002940877	 0.0368854675	-0.0008587789	-0.062789
H	-0.3232613673	 2.1223828799	 0.7361340792	 0.109296
H	-0.2572012734	 1.9834699775	-1.0788398099	 0.103456
H	 1.8892651083	 0.7437275418	-0.9428202845	 0.078563
H	 3.0829692611	 0.2861944535	 1.0697793793	 0.09733
H	 2.3460088187	 1.7853023137	 1.5998591859	 0.096663
H	 2.0318103031	 0.0149347559	 3.297725813	 0.056014
H	-0.6179733144	 1.0982919488	 2.9732384179	 0.063774
H	 0.4526161798	-1.2123966228	 4.324766449	 0.085206
H	-1.033776441	-1.7202546668	 3.4270895284	 0.084966
H	 1.2609017017	-2.297754485	 1.7630603486	 0.061199
H	-1.330684426	-1.1064493829	 1.2761902817	 0.057083
H	-0.280320969	-0.5328465794	-0.8819742634	 0.075385
