18
gdb 126547	4.69287	0.90782	0.81279	2.2304	81.02	-0.233	-0.0696	0.1634	1442.1402	0.148623	-398.149956	-398.141514	-398.140569	-398.184269	30.337	
C	-0.0638608608	 1.5356010332	 0.0073589228	-0.381457
C	-0.0241045053	 0.0064216416	 0.0326354106	-0.166647
C	 0.8090892619	-0.5411944323	 1.2082747389	-0.248904
C	 0.8062475754	-2.0425590709	 1.2444593216	 0.376807
N	-0.3009597004	-2.6538596415	 1.7039917061	-0.260617
C	-0.2619721248	-3.9762592679	 1.6940587006	-0.010012
C	 0.8655170553	-4.6529320639	 1.2289441036	 0.014871
N	 1.9298078733	-3.9943212843	 0.7816468126	-0.167871
N	 1.9022342193	-2.6652113265	 0.7893101011	-0.229026
H	 0.9431498359	 1.95723402	-0.0829658295	 0.119128
H	-0.65532513	 1.9005176227	-0.837858662	 0.1157
H	-0.5099078265	 1.9353716582	 0.9246859655	 0.117217
H	-1.0414090929	-0.3952683949	 0.1057753461	 0.113574
H	 0.3966066392	-0.3718748505	-0.9068895597	 0.109644
H	 1.8436475581	-0.1973532785	 1.1271886521	 0.122771
H	 0.3902479624	-0.1691708299	 2.1498054529	 0.116484
H	-1.1357107594	-4.5109848006	 2.0609258655	 0.128945
H	 0.9253376093	-5.736374814	 1.2113504212	 0.129392
