20
gdb 114956	3.64553	0.93297	0.79417	3.3924	76.41	-0.2532	0.022	0.2752	1480.2005	0.170729	-440.310424	-440.300884	-440.29994	-440.345693	34.105	
C	 0.1455249858	 1.4873210263	-0.076984548	-0.386463
C	 0.21990246	-0.039393983	-0.0048688483	-0.18619
C	 0.6745009536	-0.566093052	 1.3502492895	 0.098377
C	 0.8368020741	-2.110583943	 1.431499162	-0.208862
N	 2.2633037715	-2.3286926431	 1.7045736177	-0.338376
C	 2.7914399391	-1.1771340995	 1.7942739173	 0.387295
C	 4.2488735323	-0.9559875405	 2.0674033199	-0.127473
O	 4.9346463725	-2.1718712749	 2.2042193014	-0.421711
O	 2.0210009695	-0.0786671558	 1.6406204842	-0.262845
H	 1.1216994684	 1.9331051086	 0.1315444922	 0.135681
H	-0.175906574	 1.8176700718	-1.0688818021	 0.117348
H	-0.5672844415	 1.8833168931	 0.6547504044	 0.116465
H	-0.7643778607	-0.477710185	-0.2151155925	 0.105411
H	 0.903172416	-0.4253820589	-0.7720448976	 0.108867
H	 0.0287490154	-0.1756017522	 2.1441973452	 0.092399
H	 0.2293707709	-2.5554054549	 2.2263188779	 0.118768
H	 0.5534104518	-2.5983461073	 0.4916031863	 0.115577
H	 4.6691699134	-0.3548971743	 1.2459289322	 0.118574
H	 4.3427159212	-0.3445241591	 2.9783997329	 0.119909
H	 4.2708298408	-2.8663020562	 2.0806388653	 0.297247
