18
gdb 40533	4.65394	1.11488	1.04801	0.8746	77.32	-0.2309	0.0203	0.2511	1194.9258	0.149221	-401.936944	-401.929502	-401.928558	-401.969507	29.015	
C	-0.043660275	 1.4978104975	 0.0194455095	-0.252769
C	 1.2610746976	 0.7712973261	-0.0589961854	-0.256179
C	-0.0230043328	-0.0218711727	 0.0755367147	-0.115273
C	-0.3099866547	-0.6877127271	 1.3545032603	 0.417538
N	 0.1170606518	-0.3576040834	 2.5132238981	-0.332352
C	-0.4921186744	-1.2683888285	 3.4496355408	-0.017507
C	-2.0071723619	-1.2355915121	 3.5277164129	-0.320418
C	-1.3331276811	-2.2099529896	 2.6057948379	 0.054986
O	-1.1347285252	-1.7781382016	 1.2696914695	-0.251048
H	-0.2810370722	 2.0055099009	 0.9467819908	 0.135575
H	-0.444419711	 1.9557688635	-0.877868122	 0.117661
H	 1.774868017	 0.721744524	-1.0121739603	 0.117115
H	 1.8995478094	 0.7887944611	 0.8159626461	 0.143954
H	-0.3858114147	-0.560444203	-0.7909648801	 0.104252
H	 0.09594827	-1.5550410771	 4.3130211852	 0.099859
H	-2.4611931446	-1.6612817988	 4.4160424555	 0.11943
H	-2.525458517	-0.3820728702	 3.1030850273	 0.124417
H	-1.4301754911	-3.2839161389	 2.6952438296	 0.110758
