19
gdb 76429	3.04872	1.06118	0.97318	1.9908	77.74	-0.2316	0.033	0.2647	1295.7059	0.155736	-422.972486	-422.962387	-422.961443	-423.007424	37.42	
C	-0.0493980134	 1.4886286779	-0.2201624546	-0.400256
C	 0.0178438986	-0.0122583509	-0.0484086701	-0.124218
C	 1.3413431673	-0.7634751797	-0.1847991878	 0.064071
O	 2.5252981493	-0.0546768947	-0.3651791865	-0.433197
C	 0.6609206358	-0.6488787249	 1.1601272797	 0.344125
O	 1.2849233014	 0.2455369025	 2.0495617663	-0.473885
C	 0.0077013503	-1.8446913078	 1.8402192784	-0.415251
C	 0.9455380366	-2.528380252	 2.7279173203	 0.261617
C	 1.7626677902	-3.0149329393	 3.4646549996	-0.422274
H	 0.9014282101	 1.959572439	 0.033228889	 0.126871
H	-0.2783535555	 1.7396168559	-1.2607289844	 0.119088
H	-0.8252006161	 1.9289158781	 0.4141748479	 0.117346
H	-0.8513683301	-0.5511088207	-0.4206762799	 0.081875
H	 1.3502748582	-1.7163542859	-0.7073288838	 0.095484
H	 2.6983152316	 0.3880652979	 0.4780203911	 0.285949
H	 1.7955172892	-0.2941028908	 2.6701123789	 0.29133
H	-0.8633643387	-1.507112764	 2.4175149959	 0.140241
H	-0.366433363	-2.5372379935	 1.0778354614	 0.136413
H	 2.4643875983	-3.4830295573	 4.1102803084	 0.204672
