20
gdb 100213	2.54747	1.11902	0.95378	4.0758	84.68	-0.2743	0.0274	0.3017	1328.7434	0.167787	-366.003991	-365.993447	-365.992503	-366.03928	38.492	
C	-0.1109761257	 1.5409321124	 0.1452058182	-0.405053
C	 0.0277178291	 0.0260621653	-0.0165699853	-0.186051
C	 0.7600187913	-0.4401509383	-1.3079216651	 0.039899
C	 2.2183738415	 0.0666894141	-1.3420680159	-0.417793
C	 0.7447050109	-2.0027327395	-1.2952643375	-0.361599
C	 1.4124553655	-2.6143390213	-2.4414451454	 0.275559
N	 1.9515430013	-3.0999929121	-3.340709492	-0.314729
C	 0.036637275	 0.0308649736	-2.492511587	 0.375091
C	-0.563248838	 0.4112697236	-3.4620659845	-0.496938
H	 0.8599088632	 2.032081078	 0.2571576438	 0.121904
H	-0.6174691036	 1.982045695	-0.7178535426	 0.136344
H	-0.6997416891	 1.771608677	 1.037883624	 0.118953
H	 0.5699486285	-0.3906030942	 0.8419653799	 0.097915
H	-0.9698462424	-0.4288720455	-0.0093530122	 0.106421
H	 2.7508251932	-0.2529573554	-0.4395601125	 0.115013
H	 2.7445067014	-0.3285929042	-2.2140883188	 0.152136
H	 2.250292607	 1.156376416	-1.3951922308	 0.134161
H	 1.2353016202	-2.3557188321	-0.3807305561	 0.148032
H	-0.2907436632	-2.3569144054	-1.2662683924	 0.156267
H	-1.082689236	 0.743001263	-4.3271367077	 0.204469
