19
gdb 32798	3.24507	1.00854	0.7902	0.7804	80.4	-0.1795	0.0303	0.2098	1456.1182	0.160119	-419.224222	-419.214954	-419.21401	-419.258935	34.091	
C	 0.0274642715	 1.5369296959	-0.0123367167	-0.391736
C	-0.0814758346	 0.0405620757	-0.2875905755	-0.114648
N	-1.2873673369	-0.506452953	 0.3286908146	-0.412134
C	-1.5401684383	-1.8710947264	 0.1850484438	 0.27264
C	-2.7649074658	-2.4391345523	-0.0273977113	 0.187846
N	-4.0107254484	-1.8343408836	-0.1978435634	-0.605189
O	-2.6471982568	-3.8183189122	-0.0300958824	-0.169308
C	-1.3372516351	-4.0966294992	 0.1585447032	-0.01259
C	-0.6068581134	-2.959625533	 0.300801825	-0.255748
H	 0.943010552	 1.9451198697	-0.4500701372	 0.116349
H	-0.8192628835	 2.0801054984	-0.4479983305	 0.114584
H	 0.0355417965	 1.7322862959	 1.063844891	 0.127709
H	-0.0461341061	-0.144726567	-1.3752948295	 0.087721
H	 0.7850221858	-0.4733766119	 0.1436859479	 0.109139
H	-2.1155975217	 0.0228971553	 0.0781453746	 0.229254
H	-4.6484583845	-2.0076215099	 0.5740600329	 0.243443
H	-4.4729900516	-2.1233577277	-1.0544525919	 0.242666
H	-1.0719470836	-5.1415314318	 0.1629464287	 0.126909
H	 0.4564107745	-2.8995459229	 0.4700331466	 0.103093
