23
gdb 80449	2.32967	1.39754	1.16578	0.2461	92.32	-0.2134	0.0283	0.2417	1238.1882	0.205159	-351.17291	-351.163393	-351.162449	-351.206401	36.986	
C	-0.1409607204	 1.553898691	 0.0633711175	-0.418181
C	 0.0415414279	 0.053458184	 0.0727263915	-0.036317
C	 1.3582095825	-0.6451277693	-0.1940778858	-0.114296
C	 2.665021737	 0.1319125412	-0.0405432387	-0.325747
C	 2.701867457	 0.5192996482	 1.4290256072	 0.322447
C	 3.8003449454	 1.3649237615	 1.9922963272	-0.489363
C	 1.6390384334	 0.0255302294	 2.0746624086	-0.250228
C	 0.7143263534	-0.7435674695	 1.187160867	 0.313504
C	 0.0581159162	-1.9956433438	 1.7232607406	-0.482861
H	 0.6752827852	 2.0694512754	 0.5743736625	 0.11993
H	-0.1896010754	 1.933689598	-0.9638650888	 0.110979
H	-1.0743155064	 1.8360711937	 0.5634631911	 0.111652
H	-0.8048968909	-0.4769895509	-0.3615850462	 0.07462
H	 1.3452464091	-1.4962765413	-0.8667322168	 0.074785
H	 3.5340133353	-0.4845927644	-0.3096047581	 0.101051
H	 2.7118559463	 1.0176529514	-0.6901987347	 0.10337
H	 3.8366079529	 2.3510399098	 1.5112360779	 0.123379
H	 3.6781981341	 1.5201128599	 3.0678783541	 0.121618
H	 4.782353017	 0.9036322968	 1.8235922574	 0.121431
H	 1.4403277361	 0.1675197447	 3.1329182618	 0.078583
H	-0.639259456	-1.7638019709	 2.5376066525	 0.113351
H	-0.5103217665	-2.5095247344	 0.9414068432	 0.111803
H	 0.8014585171	-2.6996412203	 2.115166529	 0.11449
