16
gdb 42939	2.5397	2.18509	1.52042	4.0614	67.4	-0.2355	-0.0146	0.2209	876.3518	0.12667	-437.855381	-437.848942	-437.847998	-437.886029	26.191	
O	-0.0386173444	 0.0355164183	 0.3429329273	-0.317248
C	-0.06574407	 1.2067154571	 0.0659447119	 0.370315
C	-1.3639514039	 2.0105239028	-0.0739354319	-0.005918
C	-1.3915791642	 2.9369694063	 1.1683796462	-0.271136
C	-0.5580106238	 3.8377321562	 0.2329998606	 0.063194
O	-1.1911855267	 3.177101814	-0.9169989918	-0.286726
C	 0.9025007373	 3.4476910017	 0.1186646277	-0.018173
C	 1.6671316813	 2.6500014362	 1.1243727271	-0.263142
N	 1.0970339243	 2.0038544537	-0.0637463029	-0.104409
H	-2.2165661074	 1.3881652762	-0.3439505912	 0.107158
H	-2.3858483784	 3.3554564035	 1.326995295	 0.128985
H	-0.9744249729	 2.5852941928	 2.1135890969	 0.119101
H	-0.7215116897	 4.9170276111	 0.236907268	 0.091963
H	 1.4691811774	 4.0541725786	-0.585077991	 0.114322
H	 2.7510554495	 2.7179772745	 1.1381650898	 0.136663
H	 1.2146083116	 2.425886667	 2.0855963483	 0.13505
