18
gdb 77103	2.9377	1.18674	0.97492	4.5384	77.79	-0.2356	0.0139	0.2495	1233.1659	0.148322	-398.092874	-398.08408	-398.083136	-398.127054	32.993	
N	 0.3220749069	 1.1494893954	-0.2629944136	-0.508675
C	-0.012283099	-0.2352963712	-0.0553012651	-0.102271
C	-0.012947484	-0.7170730558	 1.4394221122	-0.070988
N	-1.3952335234	-1.2739878978	 1.2880043518	-0.387615
C	-1.4682557715	-0.7507955063	-0.0882830672	 0.363901
C	-2.6640599865	-0.0247668888	-0.6242981336	-0.3084
C	-2.2388366	-1.3588201032	-1.2125705451	-0.338718
C	 1.0173057874	-1.6765646411	 1.8086630524	 0.257402
N	 1.8190542099	-2.4648028039	 2.0800407628	-0.325206
H	 0.4652924441	 1.3536157297	-1.2454974096	 0.239098
H	-0.4183667099	 1.7586995146	 0.0716460606	 0.235782
H	 0.6549169078	-0.8507402758	-0.6642134674	 0.108605
H	 0.0055272586	 0.1220745954	 2.1428825012	 0.127215
H	-1.3884126406	-2.2894859056	 1.3141868149	 0.23633
H	-3.5532735108	-0.0051713209	-0.0037412568	 0.127002
H	-2.498555204	 0.870818434	-1.2161265684	 0.106435
H	-1.7879479033	-1.3719404577	-2.2004028872	 0.117567
H	-2.8571166816	-2.224323671	-0.9947250219	 0.122534
