18
gdb 119549	2.77751	1.33651	1.02304	1.7465	73.53	-0.2538	0.0153	0.2691	1180.3998	0.14664	-439.038858	-439.030099	-439.029155	-439.073087	31.874	
C	-0.2521566879	 0.7376725308	 0.2950770424	-0.246504
O	 0.9584554759	 0.4358700798	-0.3764840183	-0.226089
C	 0.7946116217	-0.4171696694	-1.4876839217	-0.200524
C	 0.589831224	-1.8641097532	-1.1202431184	 0.176882
C	 1.6893890115	-2.7232024499	-0.4754261666	-0.324833
C	 1.071361554	-3.1595319049	-1.7491602777	 0.035102
O	-0.1972876604	-3.8103219558	-1.4717343712	-0.27427
C	-0.6987186424	-2.611328511	-0.9658937666	 0.407296
N	-1.8567370777	-2.3078865473	-0.5955198219	-0.559729
H	-0.9514752595	 1.2715083201	-0.3664644567	 0.106115
H	-0.7597606333	-0.1607423966	 0.6683097711	 0.139985
H	 0.0070751141	 1.3862203723	 1.1352134454	 0.122033
H	-0.0398023234	-0.0787547111	-2.1214894974	 0.104606
H	 1.7177837311	-0.3275796344	-2.0713687954	 0.106562
H	 2.677238621	-2.2772709075	-0.5433275587	 0.135121
H	 1.4922327401	-3.2815127656	 0.4339269002	 0.135512
H	 1.5413894662	-3.3710359143	-2.6996440162	 0.129715
H	-2.495741865	-3.1005457119	-0.6736168822	 0.233021
