23
gdb 92498	2.36054	1.55924	1.36867	1.2522	84.37	-0.2358	0.0763	0.3121	1120.0639	0.206161	-388.303736	-388.29486	-388.293916	-388.336819	35.26	
C	 0.7147294936	 1.3725123364	-0.1523926959	-0.397614
C	 0.0189412636	 0.0187491799	 0.0125604974	 0.123461
C	 0.1850170263	-0.9421626282	-1.1899668008	-0.257308
C	 1.2967747609	-1.9067650414	-0.7647746289	-0.062903
C	 2.7740520578	-1.4371985666	-0.9173699341	-0.232263
C	 2.8924186931	-1.2786100766	 0.625341441	-0.269678
C	 1.4043937289	-1.7328494731	 0.7856638473	 0.428738
C	 1.1520130462	-2.9245559074	 1.6890942661	-0.45267
O	 0.5065661313	-0.692755131	 1.1544126705	-0.31083
H	 1.7714925614	 1.2646106076	-0.4136507799	 0.119193
H	 0.2285172933	 1.9532500104	-0.9440730285	 0.10908
H	 0.6499965734	 1.9421302893	 0.7790856445	 0.12171
H	-1.0435465839	 0.2090742875	 0.2074965805	 0.076575
H	-0.7455459017	-1.4930993255	-1.3567301807	 0.101941
H	 0.4190050045	-0.405694155	-2.1145636781	 0.099902
H	 1.1141405399	-2.9252657047	-1.1136368341	 0.064547
H	 3.4377255739	-2.1931472478	-1.3433277467	 0.098366
H	 2.9012599821	-0.517865994	-1.4950136528	 0.096558
H	 3.615861565	-1.9514013019	 1.0934656117	 0.093838
H	 3.0751423137	-0.2664406684	 0.9906636251	 0.103744
H	 1.3166013804	-2.6498517867	 2.7363133786	 0.12305
H	 0.119216432	-3.2725530777	 1.5871497191	 0.114645
H	 1.8261313146	-3.7508813952	 1.4426016786	 0.107916
