15
gdb 8571	4.31926	2.05806	1.7754	5.1864	60.51	-0.2499	0.0495	0.2994	756.6174	0.121522	-399.829898	-399.823701	-399.822757	-399.860297	24.445	
O	 0.010644119	-0.0240752185	-0.0301543801	-0.390968
C	-0.0338073913	 1.1773828465	 0.0086460331	 0.456788
N	-1.1797830164	 1.9288183844	 0.0917488232	-0.348208
C	-1.1062775467	 3.3816074688	 0.02963725	 0.004121
C	-0.0973232595	 3.7654783451	-1.0935418575	-0.247575
C	 0.974313821	 3.3617002738	-0.0490846217	 0.121687
C	-0.0163760249	 3.823740304	 1.0480772865	-0.239778
O	 1.1130001003	 1.9284651535	-0.0146058929	-0.260961
H	-2.0464665925	 1.4333540331	-0.0296344609	 0.261426
H	-2.1063330437	 3.8129672229	 0.0588686925	 0.083708
H	-0.1353343986	 3.2051635923	-2.0294907972	 0.117433
H	-0.0786017327	 4.8400638571	-1.2846373081	 0.114026
H	 1.9879841769	 3.7567284399	-0.0983398565	 0.095047
H	 0.0111625065	 4.9069838826	 1.1789334703	 0.113709
H	 0.0157480926	 3.3130451443	 2.0117653892	 0.119546
