19
gdb 120722	2.44651	1.31231	0.92604	5.5344	73.72	-0.235	0.0282	0.2632	1269.2915	0.159447	-456.355178	-456.345901	-456.344957	-456.389806	34.398	
N	 0.0349308067	 0.8531305595	-0.5552851619	-0.527422
C	-0.0482940711	-0.4976986914	-0.328626104	 0.425522
O	 0.8004372267	-1.2801777888	-0.7275410319	-0.385973
N	-1.1440932227	-0.8745193515	 0.4348030297	-0.112056
C	-2.5292101725	-0.5170981991	 0.1894321063	-0.277213
C	-2.0790907747	-1.9509819831	 0.1610869719	 0.010918
C	-2.1111688536	-2.753493721	-1.1263427852	-0.247701
C	-1.26341459	-4.0395890093	-1.1056347877	-0.037603
O	 0.0918318322	-3.86192811	-1.4132266694	-0.432865
H	 0.9379401719	 1.1776335774	-0.8629451173	 0.269768
H	-0.4903753885	 1.4775758689	 0.034858125	 0.263819
H	-3.0823982432	-0.1250188341	 1.0395185864	 0.123885
H	-2.7657927482	-0.0569527642	-0.7679339576	 0.132364
H	-2.294880544	-2.5456293438	 1.0487354776	 0.106104
H	-3.1606206971	-3.036891021	-1.2839435921	 0.105401
H	-1.8127264687	-2.1362084349	-1.9812648167	 0.113696
H	-1.4058083738	-4.5310834401	-0.1239173018	 0.06911
H	-1.6675105147	-4.7305564221	-1.8560215407	 0.093357
H	 0.4101014353	-3.0306907815	-1.0191644506	 0.306886
