16
gdb 43165	2.25138	1.94099	1.83738	2.8939	67.85	-0.2317	-0.0349	0.1968	874.7252	0.127266	-437.913862	-437.907042	-437.906098	-437.945197	26.514	
O	-0.0070646545	 0.0366102825	 0.0806113545	-0.32154
C	-0.0062037215	 1.2355704524	 0.0172868627	 0.402528
C	-1.2162902923	 2.1829763878	 0.0147419604	 0.010767
C	-0.8174262345	 3.21226982	 1.0804624508	-0.241646
C	 0.7564625013	 3.20475897	 1.0955870653	-0.227594
C	 1.1509691573	 2.2206387771	-0.0234735384	-0.084768
N	 1.0871200898	 2.9065116253	-1.3383806862	-0.268939
C	-0.0640512767	 3.1218197663	-1.8200717972	 0.132064
O	-1.2762093552	 2.8114261552	-1.300403808	-0.242906
H	-2.1760508699	 1.6910422577	 0.1569823329	 0.111713
H	-1.2346254861	 4.1915497299	 0.8358958362	 0.126879
H	-1.2195541169	 2.9158969003	 2.0531492319	 0.122335
H	 1.1774203468	 4.1932186271	 0.9013796738	 0.125135
H	 1.1364232011	 2.8594158544	 2.0613966779	 0.116272
H	 2.1313582914	 1.7618705078	 0.095921199	 0.100092
H	-0.1827871901	 3.6214569661	-2.7792375057	 0.139607
