19
gdb 124539	3.88247	1.04692	0.87855	3.3337	78.08	-0.2207	0.0344	0.2551	1353.8481	0.160647	-415.431024	-415.421718	-415.420774	-415.465331	34.484	
C	-0.0023176905	 1.2754067823	-0.4195169216	-0.383341
C	 0.0179007575	-0.16338772	 0.1306487533	-0.07209
C	 0.6665752023	-0.231255437	 1.5170588102	-0.378895
C	-1.3666684842	-0.7468557782	 0.1194293514	 0.356227
N	-2.0108947504	-1.1151195599	 1.2104239665	-0.285278
N	-3.206335759	-1.5587428704	 0.7041437636	-0.256797
C	-3.2096804825	-1.4352822826	-0.6410495253	 0.406752
N	-4.2442631123	-1.8641600428	-1.4508359856	-0.600154
N	-2.0676555238	-0.9202264573	-1.0501955777	-0.365515
H	 1.0164784346	 1.6663942923	-0.5080959191	 0.106214
H	-0.4748689956	 1.3080531102	-1.4042104323	 0.130419
H	-0.561962046	 1.9372995971	 0.2506782652	 0.113211
H	 0.6129857528	-0.7691196009	-0.5665267971	 0.091702
H	 1.6861032935	 0.1647146579	 1.4758606692	 0.100549
H	 0.0986770855	 0.3583498003	 2.2429170861	 0.123968
H	 0.707420206	-1.258121433	 1.8892668248	 0.11951
H	-3.8880436944	-1.9744091593	 1.3151744612	 0.270584
H	-5.1719434171	-1.6696166747	-1.0996823939	 0.2542
H	-4.1287084864	-1.5258808141	-2.3964512087	 0.268735
