16
gdb 9240	6.3772	0.78146	0.71765	1.2872	83.57	-0.2476	-0.0236	0.224	1538.298	0.12727	-346.550217	-346.540825	-346.539881	-346.584462	33.368	
C	-0.0094553344	 1.5642279582	 0.0598511662	-0.386394
C	-0.0308987721	 0.037182137	-0.0202588246	-0.175476
C	 0.7342051723	-0.4957738433	-1.2496331553	-0.100333
O	 2.0923806469	-0.0618221877	-1.2685080102	-0.409927
C	 0.6353835639	-1.9535772467	-1.3447606753	 0.387128
C	 0.5750114813	-3.1623326476	-1.3849921523	-0.228126
C	 0.5053863366	-4.5202549209	-1.4342559667	 0.283823
C	 0.4439520816	-5.7254820863	-1.4764456476	-0.550427
H	 1.018103172	 1.935765039	 0.0717862103	 0.133084
H	-0.5165546344	 2.0116610562	-0.8021863488	 0.11729
H	-0.515618531	 1.9140766858	 0.9640659583	 0.113534
H	 0.4174066837	-0.4024889312	 0.8799364303	 0.100581
H	-1.060513159	-0.3354472931	-0.0667462326	 0.112582
H	 0.2934612308	-0.0520695466	-2.1522308517	 0.122917
H	 2.5614183277	-0.5473850818	-0.5801927947	 0.286269
H	 0.3892982341	-6.7851037511	-1.5152424353	 0.193474
