18
gdb 92076	2.85885	1.49536	1.10127	2.0103	71.24	-0.2335	-0.0317	0.2018	1093.5166	0.148444	-439.077165	-439.069244	-439.0683	-439.110195	30.569	
O	 0.1509588557	 1.3253211199	 0.363835578	-0.442523
C	-0.0119688696	-0.0222751954	 0.0339476305	 0.061565
C	-1.4897383723	-0.3837637837	-0.2144072592	-0.270928
C	-1.6298146452	-1.8586676843	-0.5687618434	-0.014547
C	-1.8355303163	-2.2714416285	-1.9840924728	-0.242977
N	-0.5640130138	-2.5480952576	-1.3243397724	-0.09609
C	 0.6193368154	-1.7937642901	-1.7444524109	-0.258001
C	 0.7558991596	-0.3681580501	-1.2295149018	 0.346046
O	 1.4485104641	 0.464364155	-1.7747751351	-0.333668
H	 0.7849670706	 1.6729251789	-0.2848129579	 0.292935
H	 0.3717213161	-0.6725321033	 0.8402403278	 0.097678
H	-2.0666950908	-0.1494343123	 0.6837001063	 0.124428
H	-1.8680654749	 0.2643986359	-1.0119842748	 0.117114
H	-2.049235497	-2.4845063747	 0.2156602754	 0.101848
H	-2.4293230185	-3.146425551	-2.2355165787	 0.120651
H	-1.8735885098	-1.4713841285	-2.7234578707	 0.112371
H	 1.5046806754	-2.3249470088	-1.3632964603	 0.145673
H	 0.7150786314	-1.7832535715	-2.83476937	 0.138425
