17
gdb 56943	2.19492	1.24945	0.96283	1.6413	80.55	-0.2471	0.0283	0.2754	1264.4922	0.132491	-384.59803	-384.588387	-384.587443	-384.63288	35.679	
O	 1.3968139826	 1.6647667335	-0.5029515568	-0.415896
C	 0.5243177003	 0.671978139	 0.0332915587	-0.077764
C	 0.2340800338	-0.374688131	-0.9522603206	 0.309381
C	 0.0545955968	-1.2401453852	-1.7669861465	-0.456438
C	 1.0712581695	 0.0709610594	 1.3191189765	-0.014088
C	 1.1022002063	 0.8990622279	 2.5661380395	-0.307775
C	 0.1400765666	-0.2766130208	 2.4771638122	-0.18611
C	-1.2732528917	-0.0481746545	 2.3918003764	 0.328059
C	-2.4607230291	 0.1363422768	 2.3318312517	-0.460759
H	 2.1553673607	 1.2094758575	-0.8849058612	 0.283426
H	-0.4020292309	 1.2075471672	 0.2683152918	 0.128378
H	-0.1300920298	-1.9969077937	-2.4889719693	 0.200412
H	 1.8893975356	-0.6277300338	 1.1678780117	 0.096664
H	 1.9509230609	 0.8062461893	 3.2339091445	 0.120266
H	 0.6684633201	 1.8913071502	 2.5174820309	 0.136918
H	 0.4176297841	-1.1635351841	 3.0390617456	 0.11708
H	-3.5086720358	 0.2973837721	 2.2768199548	 0.198247
