14
gdb 19542	4.61654	1.78432	1.68428	4.7064	67.02	-0.2654	-0.0003	0.2652	793.0521	0.109373	-341.52845	-341.522438	-341.521494	-341.558558	23.389	
N	-0.1204977297	-1.143656101	-0.1087598275	-0.353248
C	-0.075454628	 0.0107316889	-0.0328331654	 0.125197
C	 0.0282206949	 1.4187979267	 0.0783739877	 0.300512
C	-0.705400304	 2.45358684	 0.8649180845	-0.079555
C	 0.5964611041	 3.1356902686	 1.2823481773	-0.242755
C	 1.2235880494	 2.4615431107	 0.0325812563	-0.131693
C	 0.4329189773	 3.1049896726	-1.1164653385	-0.151239
N	-0.8222238369	 2.4333624825	-0.6283020287	-0.170359
H	-1.6299313086	 2.3379203156	 1.4141834681	 0.127201
H	 0.6255454623	 4.2285699648	 1.330472293	 0.109822
H	 0.9723584902	 2.7078244158	 2.2141055803	 0.125816
H	 2.2858160325	 2.238527846	-0.0232770456	 0.101173
H	 0.3827922782	 4.1982086856	-1.1575485821	 0.110095
H	 0.6735476583	 2.6995084532	-2.1009959395	 0.129034
