18
gdb 105021	1.97938	1.726	1.06863	1.3876	73.26	-0.2624	0.0272	0.2896	1137.8805	0.146114	-439.010337	-439.001036	-439.000091	-439.044308	35.14	
O	 0.419112849	 1.0134760775	 0.5836540611	-0.41546
C	 0.0586769171	-0.0685297829	-0.2554443885	-0.17765
C	-1.3920441094	-0.4945340026	-0.0800038203	 0.276601
C	-1.6953338969	-1.8872593072	 0.3373040558	-0.278894
N	-1.8642944451	-0.7686293837	 1.2817709841	-0.357384
C	-2.4445886677	 0.261188818	-0.9135979058	-0.100016
O	-3.7492595005	-0.0661638773	-0.4909999776	-0.415434
C	-2.2125178193	 1.7193322038	-0.8695461589	 0.306087
C	-2.0307885648	 2.9089471168	-0.8345047193	-0.46147
H	-0.1382694374	 1.7622320638	 0.3348621759	 0.289785
H	 0.2483356043	 0.1578568933	-1.3166868357	 0.100089
H	 0.7217757951	-0.8938458798	 0.022887648	 0.108007
H	-2.6248616155	-2.3523943491	 0.0255838185	 0.134504
H	-0.858372992	-2.5659460466	 0.4769152727	 0.117841
H	-1.0930551297	-0.6910713658	 1.9393983676	 0.247595
H	-2.3606459807	-0.0636383198	-1.958929323	 0.121184
H	-3.6909295704	-0.1053053118	 0.4786289548	 0.297304
H	-1.8999244762	 3.9635927333	-0.8200018795	 0.207312
