16
gdb 50755	3.37678	1.22739	0.9382	2.1557	66.85	-0.2514	-0.0324	0.219	1179.3956	0.124405	-475.023872	-475.01587	-475.014926	-475.057321	28.774	
O	-0.7597760346	 0.914489633	 0.8081556412	-0.251902
C	 0.1791905874	 0.8315540644	 0.0599202817	 0.155803
C	 1.276365709	 1.8901109894	-0.0589972775	-0.072257
C	 1.4198176233	 2.6678823883	 1.2516790968	-0.107304
O	 2.2831337254	 3.7842593924	 1.1039714985	-0.215966
C	 3.622775041	 3.4489900183	 1.0999713185	 0.016439
O	 4.1199297185	 2.9021147161	-0.1249862139	-0.224869
C	 3.6110985848	 1.7521269757	-0.6368832682	 0.127572
N	 2.4525920361	 1.2530316054	-0.6148531956	-0.273969
H	 0.327687677	-0.0317849316	-0.622821084	 0.101772
H	 0.9089855782	 2.6075549651	-0.8140136998	 0.135004
H	 0.4428915119	 3.0502102631	 1.5499982065	 0.140828
H	 1.7906358512	 2.0039240063	 2.0468076566	 0.106202
H	 4.1941617031	 4.3679637576	 1.2347195028	 0.132528
H	 3.8465807002	 2.7269132863	 1.9015175712	 0.100544
H	 4.3925589075	 1.2366116001	-1.1955233849	 0.129573
