21
gdb 77083	2.52282	1.32677	1.22474	3.0129	78.69	-0.2483	-0.0376	0.2107	1158.6025	0.180419	-424.234385	-424.224708	-424.223764	-424.268485	36.49	
C	-0.0201501375	 1.4832984393	-0.7746946618	-0.455806
C	 0.1564200718	-0.0347041215	-0.7038271344	 0.299636
C	-1.1135613547	-0.7506374544	-1.1561141877	-0.452173
C	 1.4783582688	-0.5273350941	-1.377080125	-0.29185
C	 2.1443855445	-0.6916975961	 0.0406774692	-0.158949
C	 3.1529702226	 0.3821328688	 0.3130710423	 0.156382
O	 2.9433498545	 1.4182626241	 0.9077872763	-0.267837
C	 0.7297110369	-0.5247579486	 0.6774496146	 0.110645
O	 0.5752529601	 0.254368538	 1.825645159	-0.431256
H	 0.8854424633	 2.0214851701	-0.4834300047	 0.126959
H	-0.2788716689	 1.7888013275	-1.7947332733	 0.108544
H	-0.8254296729	 1.805721454	-0.1075541989	 0.126449
H	-1.374618672	-0.4875966533	-2.1878626668	 0.112329
H	-0.9980239222	-1.8392512511	-1.1086023947	 0.106259
H	-1.9614453904	-0.4760543483	-0.5182496092	 0.124193
H	 1.3777201577	-1.4868969627	-1.8886869046	 0.109176
H	 1.9634270617	 0.1788895758	-2.0565083556	 0.108661
H	 2.6357521507	-1.6581558113	 0.1946297031	 0.091166
H	 4.1639694439	 0.1841850786	-0.1076524499	 0.09634
H	 0.3165288517	-1.5117524208	 0.9132552082	 0.082282
H	 1.1900481403	 0.998188366	 1.7481214238	 0.298849
