21
gdb 63148	2.28502	1.61373	1.31247	2.7554	82.29	-0.2296	-0.0162	0.2135	1102.1284	0.181571	-387.092067	-387.082971	-387.082027	-387.125911	34.566	
C	 0.1853100671	 1.558304076	 0.0558930975	-0.448977
C	 0.0580111161	 0.0397856902	-0.0047183984	 0.185397
C	-1.3997149399	-0.3985449592	 0.2257551877	-0.430663
C	 0.6815965674	-0.76480596	-1.2005864749	-0.061645
C	 2.0235086832	-0.2547020731	-1.7929208287	-0.245227
C	 2.8237285993	-1.1408279179	-0.793270451	-0.22889
C	 1.4846437088	-1.6712184731	-0.1895269514	-0.158111
C	 0.9709131922	-0.7755145303	 0.94113654	 0.381347
O	 1.199249629	-0.7057596651	 2.1160799873	-0.319193
H	 1.2155249749	 1.8956444046	-0.0864335611	 0.118977
H	-0.4372259135	 2.0353342082	-0.709492875	 0.115011
H	-0.1443080015	 1.9214763057	 1.0344873135	 0.132461
H	-2.0493240345	 0.0322987895	-0.5440600297	 0.118047
H	-1.507558142	-1.4876848076	 0.1853672955	 0.11917
H	-1.7518448354	-0.0621259719	 1.2055483564	 0.130985
H	-0.0424633114	-1.1709193756	-1.9074275277	 0.066143
H	 2.1656770858	-0.5531252764	-2.8340946734	 0.105949
H	 2.1986572001	 0.8218031506	-1.7301564787	 0.103203
H	 3.4060037456	-1.926745852	-1.278215134	 0.111869
H	 3.4763951382	-0.621144429	-0.0874671463	 0.115382
H	 1.3705869606	-2.7495385937	-0.0731603576	 0.088764
