23
gdb 89251	2.32336	1.7292	1.26942	0.2473	88.6	-0.2275	0.0832	0.3107	1123.9641	0.206138	-351.109675	-351.101097	-351.100153	-351.142042	35.02	
C	-0.403199396	 1.5349320593	-0.0203527385	-0.417147
C	 0.0249899847	 0.0730120368	 0.0092164179	 0.04174
C	 1.0737412187	-0.477477923	-1.0204388604	-0.33684
C	 1.8432614071	-1.1850832016	 0.1459672927	 0.387153
C	 1.9773035803	-2.6904121547	 0.0843278709	-0.492363
C	 3.0541001785	-0.4438867677	 0.7758965309	-0.10426
C	 2.9161194258	 1.0459977992	 0.7384302733	-0.299564
C	 2.1076183379	 0.2781648733	 1.7512839168	-0.059911
C	 0.8981460523	-0.4915605391	 1.1736710392	-0.087118
H	 0.440257806	 2.2217393352	 0.0858714224	 0.120775
H	-0.9128480783	 1.7734026719	-0.9609911638	 0.110893
H	-1.1023104394	 1.749422722	 0.7960672487	 0.111611
H	-0.87778752	-0.5452586314	-0.0550760071	 0.070553
H	 0.6560461943	-1.1654656755	-1.7609375802	 0.090111
H	 1.6439189901	 0.2842356061	-1.5585622834	 0.096651
H	 2.6995822317	-2.9919049556	-0.6850127948	 0.11351
H	 2.3256466514	-3.0951610174	 1.041691917	 0.113587
H	 1.0200867684	-3.1675007933	-0.1539041237	 0.11019
H	 4.0076382212	-0.9209139977	 0.977031131	 0.076918
H	 3.7552427271	 1.5860802707	 1.1678438321	 0.108377
H	 2.4662279447	 1.5579665131	-0.1038692935	 0.107802
H	 2.245287931	 0.4662684435	 2.8099453843	 0.080311
H	 0.3821574126	-1.0886557743	 1.9290774083	 0.057022
