21
gdb 92372	2.10907	1.96185	1.52219	1.7746	76.5	-0.2435	0.0783	0.3218	1013.2641	0.183605	-424.253622	-424.24543	-424.244486	-424.285825	32.816	
C	-0.2464181055	 1.5612237165	-0.0674499793	-0.41721
C	 0.0270332688	 0.068347379	 0.0102430841	 0.128952
O	 0.7584565975	-0.3788984525	-1.1501193377	-0.30017
C	 1.8151561091	-1.180033039	-0.6211453235	 0.184227
C	 2.9320558894	-0.2453815683	-0.122924976	-0.236072
C	 2.2729529155	 0.2719370006	 1.1892986383	-0.261861
C	 0.9136115946	-0.4726487923	 1.1653662761	 0.339907
C	 0.2246723448	-0.6826050831	 2.49189531	-0.487637
O	 1.2940655363	-1.7364169987	 0.5669406369	-0.280196
H	 0.6756978878	 2.1412048732	-0.154898106	 0.122641
H	-0.8617632253	 1.7792896348	-0.9448476744	 0.130186
H	-0.7938483963	 1.9007102188	 0.8186767153	 0.114933
H	-0.9308611602	-0.4712317732	 0.0440373921	 0.075211
H	 2.0842285605	-1.9569596013	-1.3369086449	 0.085988
H	 3.8539275203	-0.7993540901	 0.0721119879	 0.103126
H	 3.1422929827	 0.5408033153	-0.8503133658	 0.108071
H	 2.8390978079	-0.0370527761	 2.0713756615	 0.104178
H	 2.1681097119	 1.3575859588	 1.2254909789	 0.104299
H	-0.0608671836	 0.2782375593	 2.931325642	 0.123217
H	-0.6779332461	-1.2882569795	 2.3696062861	 0.1294
H	 0.8911430198	-1.1931829723	 3.1926810184	 0.128809
