17
gdb 106444	2.71538	1.35115	1.07624	1.7929	75.03	-0.2505	0.0333	0.2838	1141.6741	0.133922	-421.714935	-421.706449	-421.705505	-421.748123	32.337	
O	 0.0189820865	 1.3732921722	-0.0807694059	-0.412629
C	 0.0164216363	-0.0368201837	 0.0302323073	-0.191963
C	-1.3842905416	-0.5596706345	 0.1504109803	 0.385702
C	-2.5184930439	-0.1989811072	 1.1423586538	-0.266099
C	-3.1105900901	-1.0074139492	-0.0307931931	 0.046322
O	-2.3038244112	-0.1992485967	-0.9680491009	-0.349291
C	-1.9329717372	-2.0276104835	 0.0850011439	-0.261903
C	-1.5966221798	-2.8443565	-1.0584789541	 0.318802
C	-1.3048783488	-3.5569224498	-1.9816954766	-0.425015
H	-0.6007129308	 1.5941474012	-0.7864034718	 0.297598
H	 0.5003716857	-0.5220969292	-0.8313010988	 0.112522
H	 0.5889810508	-0.2928474862	 0.9280144391	 0.118375
H	-2.500733091	-0.653569577	 2.1357648974	 0.099574
H	-2.7898937875	 0.8553886326	 1.1547678677	 0.119355
H	-4.1475705156	-1.2029161873	-0.3007706879	 0.108508
H	-1.8854901496	-2.5863560839	 1.0243920362	 0.103941
H	-1.0534497321	-4.1745454778	-2.8081198065	 0.1962
