19
gdb 73287	2.385	1.71899	1.3417	2.6848	70.76	-0.2417	0.0622	0.3039	1019.8215	0.16031	-460.141776	-460.133906	-460.132962	-460.173914	30.952	
O	-0.0512313914	 1.3966755631	 0.0640065747	-0.482418
C	 0.0577583048	-0.0033016839	-0.0142688075	 0.317039
C	 0.1726901413	-0.672138887	-1.408176948	-0.128588
O	-0.8952192378	-1.5812059214	-1.0620133296	-0.295369
C	-1.3204800955	-0.7066367604	 0.0092741956	 0.113878
C	-1.7680220382	-1.39810715	 1.2840200539	-0.122307
O	-0.7067968936	-1.9189956127	 2.0613085158	-0.24049
C	 0.2849281633	-0.9416520155	 2.3220376174	-0.077015
C	 1.0227499682	-0.5930381231	 1.0292541602	-0.263156
H	 0.8333352249	 1.7711699214	 0.1330294701	 0.278919
H	-0.1150977728	 0.010479271	-2.2196049542	 0.09748
H	 1.0973429169	-1.1994152569	-1.6658679047	 0.100025
H	-2.1100300522	-0.024559357	-0.3388223239	 0.079965
H	-2.3499252314	-0.6723076431	 1.8781745893	 0.092941
H	-2.4218022392	-2.2403088579	 1.0368262973	 0.123403
H	-0.1668279719	-0.0382973797	 2.7656254626	 0.093422
H	 0.9654093326	-1.3794878937	 3.0574330262	 0.108249
H	 1.4696888818	-1.5147024289	 0.6449705255	 0.120298
H	 1.8404646102	 0.1136843155	 1.2219443692	 0.083724
