17
gdb 82356	3.17949	1.37344	1.12085	6.7103	71.61	-0.2655	0.0334	0.2989	1079.4422	0.138404	-418.002151	-417.994495	-417.99355	-418.034702	29.578	
O	 0.0949826793	 1.379007266	 0.2051788004	-0.416846
C	 0.0408899417	-0.0113456488	 0.0429854652	 0.122632
C	-1.4004050591	-0.524273464	-0.1075111972	-0.087633
N	-2.1832101872	 0.4200183309	-0.9279922574	-0.343359
C	-1.6706376346	-0.8235641416	-1.5377799218	-0.033927
C	-0.4044032791	-0.6042705184	-2.3568637866	-0.240594
C	 0.7217885868	-0.5219797114	-1.2802564211	-0.184791
C	 1.883132081	 0.2584662021	-1.6880142395	 0.285697
N	 2.8061677114	 0.8605358156	-2.0356348539	-0.325897
H	-0.657577592	 1.7278307782	-0.2982209271	 0.294325
H	 0.5411810015	-0.4557048492	 0.9076644519	 0.099676
H	-1.8854020832	-1.0480576713	 0.7083181967	 0.101007
H	-3.1731439837	 0.3365902833	-0.7144474341	 0.244225
H	-2.384836724	-1.5835997139	-1.8361893002	 0.101873
H	-0.2177263125	-1.42220504	-3.0561042908	 0.12104
H	-0.4731163745	 0.321622629	-2.9330884497	 0.13902
H	 1.0624220082	-1.5456898865	-1.0821237447	 0.123553
