20
gdb 88671	3.66195	0.99765	0.88191	2.8292	76.21	-0.2046	0.0708	0.2754	1348.387	0.17018	-440.220114	-440.211092	-440.210148	-440.254139	34.354	
O	-0.109287367	 1.4064081503	 0.401247041	-0.413284
C	-0.0554326915	 0.0768070479	-0.0299938229	 0.080008
C	-0.385833477	-1.0332187773	 0.9494757517	-0.365973
C	-1.3549113363	-0.6503359719	-0.170636641	 0.034393
N	-2.6233760259	-0.0267373837	 0.032015489	-0.095897
C	-2.921313118	 0.9408096121	 1.1110790819	-0.195188
C	-4.3731216964	 0.3956832428	 1.1188332322	 0.138122
O	-5.2903685006	 1.1273559253	 0.340569711	-0.439236
C	-3.7792317965	-0.8588876017	 0.4262556181	-0.19969
H	 0.6339297872	 1.5552350939	 0.9951152344	 0.288512
H	 0.7083666072	-0.1216070603	-0.7825023058	 0.0887
H	 0.1503413867	-1.9746459813	 0.893825933	 0.109599
H	-0.6378981663	-0.7106446627	 1.9542378091	 0.115819
H	-1.3975363436	-1.349843728	-1.0025749602	 0.096996
H	-2.4024587382	 0.735505753	 2.0592301079	 0.08375
H	-2.7762172112	 1.9910900364	 0.8468722911	 0.113368
H	-4.8428146857	 0.2474833889	 2.0916847858	 0.088317
H	-4.871020939	 1.2878750371	-0.5130092617	 0.287117
H	-4.3524441252	-1.288995425	-0.4029824175	 0.09918
H	-3.5223977528	-1.6537669157	 1.1455887828	 0.085385
