15
gdb 5538	3.22631	1.93526	1.26131	0.8655	65.21	-0.1758	0.0341	0.2099	936.4016	0.118832	-399.806595	-399.798592	-399.797648	-399.839366	28.708	
C	-0.0656878492	 1.3891012573	-0.2492417867	-0.329495
N	-0.1214980034	 0.1264330023	 0.4913226977	-0.390305
C	-1.2088296909	-0.7001097046	 0.2629840928	 0.342688
C	-1.3072752127	-2.0324145923	-0.0206019303	 0.146054
O	-0.229585579	-2.8436378472	-0.2880935081	-0.454714
C	-2.7085223775	-2.3434305065	-0.0536128699	-0.280508
C	-3.3529327901	-1.177172817	 0.1989099288	-0.019185
O	-2.450825055	-0.1648480909	 0.3946095813	-0.177667
H	 0.8158657052	 1.9477815287	 0.0743319387	 0.123208
H	-0.0228239719	 1.2571682019	-1.3412114582	 0.112378
H	-0.9501731073	 1.9832109522	-0.0103791337	 0.147221
H	 0.7280092327	-0.4152006338	 0.3925579981	 0.245018
H	-0.2804230163	-3.6238109197	 0.2736664919	 0.297374
H	-3.1602354429	-3.302221646	-0.2565305143	 0.107527
H	-4.3892012717	-0.8930423545	 0.2599475117	 0.130406
