17
gdb 49594	3.05737	1.46076	1.19266	3.2726	71.39	-0.2454	-0.0226	0.2228	1041.9259	0.136474	-421.805392	-421.798073	-421.797129	-421.837669	28.325	
O	-0.0647298463	-0.0244608975	 0.0647971042	-0.252126
C	 0.0036515556	 1.1779538726	 0.0835195198	 0.161264
C	 1.3009866456	 1.9620944925	 0.0127114843	-0.11679
C	 1.3960656928	 2.8682461761	-1.2284596515	-0.07759
C	 0.444168644	 4.022198459	-1.4357557593	-0.291255
C	 1.7832525376	 4.2713756882	-0.7877332375	-0.066988
C	 1.7974835633	 4.2548199313	 0.722678028	 0.031826
O	 0.5308825809	 3.944575767	 1.3254564106	-0.251776
C	 1.5009325008	 2.8954707076	 1.2092000809	 0.001881
H	-0.9086557612	 1.8082681243	 0.1487609393	 0.092096
H	 2.1190136853	 1.2344319523	-0.0030624582	 0.098766
H	 1.8340035151	 2.4242351517	-2.1147915933	 0.103028
H	 0.316692775	 4.3574137786	-2.4591797153	 0.115691
H	-0.4320074297	 4.119393461	-0.8084947732	 0.143191
H	 2.546218127	 4.8447964551	-1.2994989661	 0.093863
H	 2.4111144121	 4.9602005669	 1.275086352	 0.104493
H	 1.8569946221	 2.4887856233	 2.1528064852	 0.110427
