21
gdb 73369	2.35407	2.13889	1.54315	1.774	79.93	-0.2341	0.0834	0.3176	961.2422	0.185584	-387.088617	-387.081531	-387.080587	-387.119509	30.25	
C	-0.039032596	 1.4643701398	 0.0043073941	-0.495338
C	 0.0119903642	-0.0525108529	-0.0033531547	 0.326724
C	 0.658616125	-0.7036586956	-1.241958022	-0.250258
C	 0.3474196039	-2.2209377237	-1.0653040189	-0.260569
C	-0.7765882064	-2.220268983	-0.0253355856	-0.024649
C	-0.4231986472	-1.8138096979	 1.4429988107	 0.066013
C	 0.6432763434	-0.7190705849	 1.2661939449	-0.26438
O	-1.6396251075	-1.0036433022	 1.49313202	-0.304787
C	-1.3686318508	-0.7995718435	 0.0861099902	 0.053701
H	 0.9651624359	 1.9011245967	 0.0482105534	 0.11237
H	-0.5274617635	 1.8501224281	-0.8983572788	 0.108486
H	-0.5988304051	 1.8268380631	 0.8729142437	 0.124662
H	 0.1906382411	-0.321459631	-2.1578876619	 0.093105
H	 1.7291336356	-0.4875559248	-1.3142792245	 0.09592
H	 0.0243648645	-2.6806371683	-2.0035195238	 0.101277
H	 1.2207116031	-2.7857779917	-0.7224150057	 0.101798
H	-1.5061956366	-3.0279513611	-0.0710300869	 0.075936
H	-0.3316603302	-2.5289312271	 2.2613117748	 0.073693
H	 1.6566160616	-1.0942516943	 1.0954446583	 0.091579
H	 0.6520267795	-0.0573446044	 2.1354295292	 0.104026
H	-2.2115397745	-0.4156444413	-0.4903652164	 0.070693
