12
gdb 21665	3.767	1.97634	1.2978	1.6428	65.68	-0.2167	-0.0194	0.1973	856.3856	0.085461	-373.674525	-373.667529	-373.666585	-373.705483	26.225	
N	-0.0459295612	 1.3599520249	 0.1604384701	-0.605583
C	 0.0051071211	-0.0122788492	 0.0501977476	 0.237282
N	-1.0782797688	-0.7851324696	 0.0328818071	-0.261136
N	-0.5596173339	-2.0200695595	-0.0161539438	-0.103083
N	 0.7497463186	-2.1220005003	-0.0381375262	-0.273726
C	 1.1604835929	-0.8423658335	 0.0025893559	 0.170715
C	 2.5101437833	-0.4338600353	-0.0113996685	 0.245914
C	 3.6401812444	-0.017237386	-0.0295204512	-0.421532
H	 0.7631659918	 1.8340100017	-0.2138019982	 0.260775
H	-0.9173684232	 1.7668656102	-0.1468687886	 0.260924
H	-1.1516312847	-2.833695795	-0.0355117978	 0.29449
H	 4.6439927596	 0.3290307314	-0.0366974764	 0.19496
