22
gdb 86908	4.22829	0.8007	0.7651	1.9491	83.09	-0.2355	0.0841	0.3196	1593.5846	0.193631	-404.301737	-404.292398	-404.291454	-404.336885	34.593	
C	 0.4628097788	 1.3516600927	-0.7862707726	-0.398137
C	 0.0638869462	-0.0049868517	-0.2441247734	 0.175702
C	 0.6667769702	-1.2764391546	-0.8804256396	-0.310902
C	 1.1162887568	-1.610139821	 0.5584415522	 0.158718
C	 2.5869506707	-1.8584988177	 0.8555188319	-0.169366
N	 2.9562761792	-3.229177023	 0.5283845054	-0.067437
C	 3.5276746967	-3.4646517327	-0.7949013672	-0.218302
C	 4.3812996681	-3.5129029608	 0.4235324269	-0.217604
O	 0.6981396688	-0.3067476305	 1.0253593503	-0.314781
H	 1.548190259	 1.4163621108	-0.9110719904	 0.115809
H	-0.0129909344	 1.5308145459	-1.7569335052	 0.114653
H	 0.1483997337	 2.1451437326	-0.1007771669	 0.127253
H	-1.0296832093	-0.0622586166	-0.1411292579	 0.071554
H	-0.0269851727	-1.971047602	-1.355388815	 0.107417
H	 1.4947883898	-1.0667068011	-1.5629413035	 0.100093
H	 0.5214437181	-2.4086149366	 1.0222433504	 0.08153
H	 3.2036259095	-1.108399311	 0.3271231764	 0.07702
H	 2.7426884318	-1.7066228725	 1.9306695722	 0.114216
H	 3.2159490723	-4.3794434075	-1.2907563693	 0.116838
H	 3.6603427616	-2.6097856531	-1.456217701	 0.108659
H	 5.0783912169	-2.6894997979	 0.5727221242	 0.109774
H	 4.7055747783	-4.4642159916	 0.8358670221	 0.117291
