16
gdb 77321	2.97757	1.27376	0.94352	1.1968	69.05	-0.2859	-0.0107	0.2752	1182.5967	0.124897	-437.94978	-437.941463	-437.940519	-437.983093	30.004	
C	-0.4314187984	 1.3897300567	-0.0138525221	-0.411771
C	 0.0978688964	-0.0383316729	 0.052520294	-0.152646
C	 0.9409544377	-0.5224620428	-1.147259567	-0.184037
C	 1.8312264748	-1.6050022998	-0.4904759911	-0.100092
O	 2.027736281	-1.1553381522	 0.8527915679	-0.217989
C	 1.0571587928	-0.2711420499	 1.2231193801	 0.444537
O	 1.0124339511	 0.2160244886	 2.312072544	-0.327721
C	 0.1706012263	-1.0139534348	-2.2810943829	 0.274684
N	-0.4461992316	-1.410787003	-3.1741365853	-0.311175
H	 0.3791922608	 2.1008800301	-0.2017531221	 0.130037
H	-1.1746763191	 1.4937612484	-0.8085118499	 0.138006
H	-0.8942392277	 1.6543126576	 0.9394888654	 0.154672
H	-0.7378467507	-0.7358575254	 0.1989688124	 0.135631
H	 1.5754823959	 0.3032453086	-1.4907066141	 0.140887
H	 1.332466536	-2.5800632521	-0.4829928045	 0.140155
H	 2.8077213549	-1.7042523174	-0.966074525	 0.146822
