14
gdb 75704	2.24121	2.12587	1.1895	1.3213	62.92	-0.2768	-0.0524	0.2244	975.0942	0.100913	-473.866891	-473.859091	-473.858146	-473.900447	27.589	
C	 0.0886864727	 1.4628881339	 0.0128854885	-0.350936
N	 0.0105587338	 0.0121990734	 0.0025257641	-0.164214
C	-0.0837268461	-0.742262817	-1.1702057266	 0.446569
O	-0.1995545178	-0.297312578	-2.2829273271	-0.349662
C	-0.0284888683	-2.1974946526	-0.7433789265	-0.098962
O	 1.1915362085	-2.4905559816	-0.0493303364	-0.232562
C	 0.016803999	-2.2066747609	 0.7226515976	-0.098554
C	-0.0110425062	-0.7563496939	 1.1684069646	 0.444556
O	-0.0568878331	-0.3202212355	 2.2897010353	-0.349865
H	 1.1192558159	 1.7977632951	 0.1649298661	 0.151056
H	-0.2713657831	 1.8250679057	-0.9504027101	 0.165226
H	-0.5303014239	 1.847759942	 0.8249001308	 0.15945
H	-0.4471703006	-2.9744537356	-1.3718382716	 0.139094
H	-0.3630205808	-2.991721945	 1.3655841513	 0.138805
