19
gdb 102991	1.9967	1.40378	1.11866	2.2314	78.54	-0.2281	0.0359	0.264	1202.0552	0.155925	-422.968542	-422.958431	-422.957487	-423.003186	37.725	
C	-0.4255722553	 1.4217580107	 0.0972334955	-0.384212
C	 0.1840327767	 0.0280227054	-0.0836751283	-0.245751
C	 0.8220809789	-0.4980749128	 1.2002788908	 0.030867
C	 1.9857157135	 0.2078326546	 1.6612851132	 0.283259
C	 2.9572844281	 0.795657843	 2.0614894507	-0.440791
C	-0.0897297499	-1.0867668018	 2.3004693355	 0.067321
O	-1.4572169367	-1.1786278092	 2.0761545772	-0.429213
C	 0.8065296812	-1.9950536815	 1.5065075576	-0.030787
O	 0.1570481007	-2.8082415751	 0.5615090551	-0.430107
H	 0.3269080342	 2.1382669373	 0.4401665009	 0.125497
H	-0.8380208644	 1.7893738998	-0.8474397034	 0.107299
H	-1.2321775418	 1.3929681174	 0.8352976404	 0.132639
H	-0.5821857384	-0.6742425122	-0.4182109595	 0.106074
H	 0.9501140944	 0.0456059016	-0.8669086936	 0.105419
H	 3.8125746732	 1.3206305007	 2.4077247347	 0.190209
H	 0.1504594378	-0.8473807309	 3.3309425282	 0.113826
H	-1.5738510059	-1.8523522297	 1.3911082166	 0.288267
H	 1.6999146895	-2.422969997	 1.9536992143	 0.109025
H	 0.0476383042	-3.6816730403	 0.9535962241	 0.30116
