19
gdb 111952	2.91363	1.17219	0.93081	1.7084	77.28	-0.2409	-0.0189	0.222	1289.9597	0.158121	-423.053518	-423.044221	-423.043276	-423.08818	33.877	
C	-0.3578745606	 1.5481635399	-0.0131786554	-0.391757
C	-0.0237604184	 0.0498777049	-0.0361598368	-0.144897
C	 0.7773697422	-0.4379721284	-1.2181347526	-0.085449
C	 1.8645686905	-1.1261677559	-0.8656084979	-0.079929
C	 2.0148018451	-1.2491467507	 0.6285973789	-0.153207
C	 3.3692610833	-0.8313540953	 1.2014438654	-0.07995
O	 4.3318670426	-1.7667267114	 0.7391192371	-0.425332
C	 0.8655103143	-0.3684499483	 1.1502399096	 0.381494
O	 0.7137658527	-0.0232330079	 2.2944294947	-0.324549
H	 0.5456527089	 2.1522264006	-0.1424593826	 0.119922
H	-1.0560933766	 1.8060393922	-0.8148979506	 0.115734
H	-0.81163893	 1.813134999	 0.9452819522	 0.139298
H	-0.9680658504	-0.5105242862	 0.0519277099	 0.109739
H	 0.4728150286	-0.2380892147	-2.2398558224	 0.098723
H	 2.5798214867	-1.5700082423	-1.5471205475	 0.113232
H	 1.8395560225	-2.2836679132	 0.9615669612	 0.117703
H	 3.6117843322	 0.1903486237	 0.8694640295	 0.089143
H	 3.2976184211	-0.8204981715	 2.2979826678	 0.110797
H	 5.1930053856	-1.5036963746	 1.0770551496	 0.289284
