20
gdb 96511	2.34942	1.60282	1.05412	4.6741	75.65	-0.2305	0.0166	0.2471	1170.5113	0.172619	-440.316445	-440.307934	-440.30699	-440.349392	32.82	
C	-0.5529464233	 1.1928125746	 0.1215929746	-0.416209
C	 0.4038617261	 0.00554967	 0.1829543567	-0.096838
N	 1.0473398383	-0.2020233112	-1.1216404843	-0.292346
C	 1.4033412589	-1.5824617343	-1.4233737614	-0.161181
C	 2.5695541294	-2.0706114411	-0.5629750383	-0.188277
C	 2.2888197787	-2.0272576771	 0.9365374592	-0.07778
O	 2.3785994421	-0.7159049658	 1.5107341564	-0.228984
C	 1.487198861	 0.2680437939	 1.2447839972	 0.455083
O	 1.5858528059	 1.3070615126	 1.8391571651	-0.323284
H	-0.0206189934	 2.0902827835	-0.2023289655	 0.144218
H	-1.3667962899	 0.9822546357	-0.5803279619	 0.104192
H	-0.9821257748	 1.3970770388	 1.103504307	 0.138304
H	-0.1678953997	-0.8913541725	 0.4893592638	 0.074987
H	 0.4349706466	 0.1578703038	-1.8435240451	 0.224034
H	 0.5492768122	-2.2750071666	-1.2830473538	 0.078153
H	 1.6866391746	-1.6347208254	-2.4797171133	 0.105051
H	 2.7962072273	-3.1093029097	-0.832485893	 0.102597
H	 3.4636606467	-1.4721858614	-0.7679048851	 0.124565
H	 1.3147331903	-2.4766454733	 1.1702055284	 0.108811
H	 3.0495947731	-2.5947652745	 1.4773136433	 0.124904
