18
gdb 30103	3.77428	1.14809	1.01953	1.6608	80.68	-0.2087	0.0161	0.2248	1214.046	0.148876	-401.952448	-401.944402	-401.943458	-401.985609	30.485	
C	 0.1237004211	 1.5505980345	-0.3560914408	-0.406089
C	 0.0212602167	 0.083928108	-0.0185712875	 0.008236
N	 1.2606932374	-0.7024903435	-0.0183694792	-0.334048
C	 0.530340182	-0.5274667439	 1.2531149091	-0.168098
C	 1.1838712427	 0.1851281391	 2.3613054128	 0.420835
C	 1.0438265203	 0.0590370671	 3.7121715661	-0.280964
C	 1.9222752195	 1.0221515945	 4.305981781	-0.173579
C	 2.5302033315	 1.6582066125	 3.2727782535	-0.019979
O	 2.0925359416	 1.1615933393	 2.0838012122	-0.172859
H	 1.0344842109	 1.9827035465	 0.0591367412	 0.148295
H	 0.139191978	 1.6886929536	-1.4426765092	 0.11656
H	-0.7381089443	 2.0979053855	 0.0409498467	 0.114434
H	-0.8671910703	-0.4063684289	-0.4186602106	 0.081643
H	 1.1054409976	-1.6371734268	-0.3859046827	 0.232501
H	-0.0474674147	-1.3733259451	 1.6211750268	 0.087577
H	 0.395836812	-0.637194455	 4.2216437606	 0.104136
H	 2.0804961541	 1.2067641312	 5.3568711556	 0.109792
H	 3.2664790138	 2.4418493614	 3.2066777242	 0.131607
