19
gdb 58177	2.06571	1.31938	0.98122	1.3971	72.94	-0.26	-0.1074	0.1526	1273.3812	0.155111	-460.181916	-460.171491	-460.170547	-460.217675	36.88	
C	 0.1038515457	 1.474808	 0.1012420643	-0.399792
C	 0.0289387676	-0.0501840621	-0.0360667542	 0.028175
C	 0.9297966292	-0.7449321358	 0.9937254855	-0.40789
C	-1.4638272045	-0.4935696241	 0.0356650172	 0.019133
O	-2.2268018904	 0.1321355251	-0.9734175803	-0.428156
C	-1.5952991053	-2.0002910121	-0.1154721885	 0.279976
O	-1.7915219795	-2.5154653343	-1.195293166	-0.304427
C	-1.5397197435	-2.9083852858	 1.1163686284	 0.096147
O	-1.5412769581	-2.4964362948	 2.2458345053	-0.215399
H	 1.124701701	 1.826299985	-0.078909052	 0.111936
H	-0.5648749634	 1.9617134722	-0.6108131344	 0.138791
H	-0.1837851473	 1.7880920921	 1.1119976369	 0.115292
H	 0.3694502321	-0.3263712761	-1.0440640939	 0.081152
H	 0.5493161492	-0.6141598684	 2.0119228996	 0.136186
H	 1.0267889775	-1.820352822	 0.8115595614	 0.109189
H	 1.9373588788	-0.3199987068	 0.9542739534	 0.120283
H	-1.8736936998	-0.197700119	 1.008580489	 0.112976
H	-2.2119507136	-0.4661864087	-1.7337552288	 0.291533
H	-1.5469251455	-3.9871807245	 0.8548677071	 0.114896
