23
gdb 100917	2.28412	1.06674	0.78064	3.7059	83.66	-0.2394	-0.0101	0.2293	1545.6228	0.201542	-425.433211	-425.421658	-425.420714	-425.470839	40.096	
C	 0.0024791168	 1.6193128427	 0.0474372034	-0.388759
C	-0.0658807933	 0.0889788714	 0.0738100914	-0.207456
C	 0.7539464311	-0.5452384749	 1.2214123376	-0.064364
C	 0.0812856785	-0.2012232739	 2.5408596625	 0.176031
O	 0.3988563742	 0.7036237991	 3.2672019499	-0.261886
C	 0.867564819	-2.0738342536	 1.1184792598	 0.118377
C	 1.7189944881	-2.5519312427	-0.058535197	-0.411618
O	 1.4223554255	-2.4815713581	 2.3669876198	-0.247935
C	 1.2468395932	-3.8423698444	 2.6902157779	-0.238468
H	 1.0293604355	 1.962381603	-0.1162217364	 0.121148
H	-0.6178327233	 2.0194608999	-0.7601380619	 0.112597
H	-0.3413127668	 2.0560173008	 0.9891197629	 0.13963
H	-1.1119099447	-0.2370125994	 0.1597664242	 0.100569
H	 0.2945978048	-0.3049642486	-0.8822319477	 0.106123
H	 1.7589804003	-0.1085301884	 1.2414839005	 0.096073
H	-0.8061220734	-0.8381963086	 2.7717932628	 0.065149
H	-0.1489628578	-2.4977600596	 1.0266393524	 0.063848
H	 1.796098693	-3.6426761244	-0.0702859613	 0.120469
H	 1.2839504238	-2.2496398098	-1.0148836912	 0.123058
H	 2.7294911462	-2.1379137404	 0.0133766645	 0.128679
H	 1.609828557	-3.9766684724	 3.7119970908	 0.134036
H	 0.1861444612	-4.1354456876	 2.6489544215	 0.104845
H	 1.815538361	-4.51148218	 2.0292129235	 0.109854
