15
gdb 51107	5.38062	0.89172	0.83762	2.5518	68.08	-0.2594	-0.0281	0.2313	1311.8416	0.110652	-457.765627	-457.75762	-457.756676	-457.798954	29.097	
O	 0.1169336566	-0.0237479648	-0.2285160644	-0.2562
C	 0.1423623758	 1.1622960032	-0.3258718177	 0.151818
O	 1.0112311382	 1.9269898191	 0.3903291714	-0.230778
C	 0.9338464148	 3.3066101897	 0.232342004	 0.431257
C	 1.0989634773	 4.0065164242	-1.0667345738	-0.338121
C	 2.1320786737	 4.255480104	 0.0427985515	-0.252518
C	 1.527214462	 5.1640314765	 1.0772327177	 0.438195
O	 1.8972410039	 6.1571383595	 1.6303184635	-0.300978
C	 0.3031630665	 4.226328316	 1.2872308452	-0.429542
H	-0.5045234373	 1.7646819013	-0.9880129551	 0.094905
H	 1.5028012326	 3.410223667	-1.8789635298	 0.143702
H	 0.4118728306	 4.7883184649	-1.3772029249	 0.13691
H	 3.1797291488	 4.0442845053	-0.1287187691	 0.131737
H	-0.6990720677	 4.6194275338	 1.09525101	 0.126462
H	 0.3439065941	 3.7922591204	 2.2905313714	 0.15315
