19
gdb 41578	2.90512	1.81306	1.76069	3.0591	72.74	-0.2356	0.0776	0.3131	890.8077	0.163247	-423.006365	-422.999973	-422.999029	-423.037099	26.767	
C	 0.0349048764	 1.5571975668	 0.2045645166	-0.098698
O	 1.4775825085	 1.5495357987	 0.1315177882	-0.286124
C	 1.5105317592	 0.1201388266	-0.0172299129	 0.139626
C	-0.0407389166	 0.0364676254	-0.0558292436	-0.076234
C	-0.3115461703	-0.5603055532	-1.4626303723	-0.074212
C	 0.1209894624	 0.4158089742	-2.5640399401	-0.075363
O	 1.5524005173	 0.490502991	-2.4275546099	-0.264477
C	 1.9163596055	-0.4369850113	-1.4062232927	 0.060595
C	 0.8739175892	-1.5615421081	-1.553941184	-0.235551
H	-0.3113533656	 1.8492087783	 1.2040379781	 0.098021
H	-0.414741485	 2.2316116663	-0.5321876962	 0.105509
H	 2.052112854	-0.3683697658	 0.8019799927	 0.07248
H	-0.5367397857	-0.5426573786	 0.7245105299	 0.080121
H	-1.3120416911	-0.9701830305	-1.6061431291	 0.068894
H	-0.1354400012	 0.0303460514	-3.5605785795	 0.094821
H	-0.306894756	 1.4183436191	-2.4702787927	 0.104967
H	 2.9691190047	-0.6917432623	-1.5307217977	 0.075962
H	 0.889328577	-2.2877091651	-0.7362729577	 0.102259
H	 0.9447568872	-2.0835909228	-2.5112045469	 0.107404
