13
gdb 131423	5.1543	0.92918	0.87	3.0924	65.04	-0.2669	-0.0257	0.2412	1277.9712	0.088387	-452.713402	-452.70545	-452.704506	-452.74742	28.546	
O	 0.3845686522	 1.2757629712	-0.2705481224	-0.397548
C	 0.2134361132	-0.0376249135	-0.14158669	 0.438424
N	-0.0200326145	-0.8066076162	-1.1742228765	-0.194952
O	-0.1266976261	-2.0780714478	-0.571133026	-0.192233
C	 0.0531613322	-1.9057376605	 0.7364887413	 0.443534
C	 0.0110771164	-3.1062674992	 1.6340452332	-0.449626
C	-1.2666822723	-3.8107159722	 1.5930528139	 0.301708
C	-2.3168500904	-4.3905721626	 1.5638444567	-0.432921
N	 0.2701429297	-0.6705913212	 1.0774100324	-0.390294
H	 0.5337677412	 1.6325648862	 0.6136497171	 0.321382
H	 0.8215782468	-3.7879832232	 1.344944144	 0.169057
H	 0.2296455861	-2.7567171979	 2.6472672683	 0.173013
H	-3.2465133444	-4.9033234431	 1.5334453179	 0.210456
