20
gdb 6917	4.56516	0.98238	0.93632	2.9717	77.05	-0.2423	-0.0179	0.2244	1308.5774	0.174323	-349.010284	-349.000891	-348.999947	-349.044785	33.855	
C	 0.0750578668	 1.5252577232	-0.1650881588	-0.452703
C	-0.022169582	 0.0214595052	 0.010607797	 0.332252
C	-1.3138023304	-0.5685704609	-0.5269900924	-0.447484
C	 1.2333095822	-0.8091461689	-0.1212616016	-0.327545
C	 0.5719391073	-0.6513068791	 1.2342718499	-0.03737
C	 1.252615582	 0.0978692718	 2.3664251188	-0.308321
C	 2.242137805	-0.7897115198	 3.0936686539	 0.167276
O	 2.2582099197	-0.9758772272	 4.2830958117	-0.240654
H	 1.0287380753	 1.9302078103	 0.1827559641	 0.113401
H	-0.0218304724	 1.7904211955	-1.2242570428	 0.118053
H	-0.7262795442	 2.0406081887	 0.3775644519	 0.11781
H	-1.4206024509	-0.3660874217	-1.5992899913	 0.115944
H	-1.3483190734	-1.6535384337	-0.388016854	 0.113667
H	-2.1858217175	-0.1383751653	-0.0203436523	 0.116703
H	 1.1762421528	-1.7720072534	-0.6181999867	 0.111252
H	 2.1690201068	-0.2830824367	-0.2867765967	 0.107028
H	 0.0145281524	-1.5196349754	 1.5788960283	 0.090875
H	 1.8183731071	 0.9506869321	 1.9688007232	 0.115327
H	 0.5343609612	 0.4824876206	 3.0974382257	 0.120286
H	 2.9817123121	-1.2877841453	 2.4244427621	 0.074202
