17
gdb 126864	5.00045	0.89911	0.76937	0.5146	83.99	-0.2316	-0.0581	0.1735	1454.0964	0.135763	-417.979506	-417.971171	-417.970227	-418.013617	30.474	
C	 0.080075638	 1.566710975	 0.4427399605	-0.375284
C	-0.1038476386	 0.3625801315	-0.4780581543	-0.124778
N	-1.515147726	 0.0073338483	-0.5617161658	-0.313141
C	-1.8874477706	-0.9819071807	-1.2882485392	 0.288278
C	-3.2789972713	-1.3685227165	-1.3990118343	-0.216673
C	-3.6121815469	-2.4102948	-2.1724101052	 0.100805
O	-2.7321100541	-3.1571281438	-2.8823545268	-0.239122
N	-1.3770838597	-2.8518616499	-2.8301024527	-0.0643
C	-1.018500946	-1.8576249634	-2.0976091213	-0.025099
H	 1.1358954806	 1.8459814996	 0.5161190098	 0.105133
H	-0.482090364	 2.4255902638	 0.0649560334	 0.122653
H	-0.2909530897	 1.3400929411	 1.4464468495	 0.12266
H	 0.3014016812	 0.6013461376	-1.4743299973	 0.101191
H	 0.4922673797	-0.4816254765	-0.0962531071	 0.101208
H	-4.0340884177	-0.8137983094	-0.8576015956	 0.127566
H	-4.6194248411	-2.7801563557	-2.3234593888	 0.148424
H	 0.0543247863	-1.693864951	-2.1174915647	 0.140479
