21
gdb 109617	2.5237	1.06191	0.9745	5.184	84.84	-0.2416	0.0296	0.2712	1366.5382	0.180158	-383.260146	-383.249551	-383.248607	-383.295811	37.935	
C	-1.6333072258	 0.1644969533	-3.5672185307	-0.380988
C	-0.8552186521	-0.3098591502	-2.3319875741	-0.215743
C	-1.7834789721	-0.7360653924	-1.2109153012	-0.020805
N	-2.3593515881	-2.0684431152	-1.0692067954	-0.115887
C	-2.0592330168	-3.1444553253	-2.0027998513	-0.324441
C	-1.3513152298	-1.6455934373	-0.0828900223	 0.104155
C	 0.0456872025	-2.2439745057	-0.0068313585	-0.464581
C	-1.9162162879	-1.3885339259	 1.2325818889	 0.27422
N	-2.3358003374	-1.169544758	 2.2876181405	-0.346716
H	-0.9507712777	 0.5138009748	-4.3473208432	 0.119721
H	-2.2424917645	-0.6412486591	-3.988690636	 0.125707
H	-2.305927645	 0.9907896589	-3.3148661833	 0.12649
H	-0.171528679	-1.1139495621	-2.6157802544	 0.102562
H	-0.2275579094	 0.5089844144	-1.9586570799	 0.114635
H	-2.4938343623	 0.0456463602	-0.9391628596	 0.106554
H	-1.0510780737	-3.1377157962	-2.4379717449	 0.106115
H	-2.2015053561	-4.1001176662	-1.4897921116	 0.136785
H	-2.7821971943	-3.0945965786	-2.822660637	 0.135912
H	 0.4942789048	-2.3774794663	-0.9906804086	 0.128292
H	 0.6985704279	-1.5885156641	 0.5766670773	 0.145384
H	 0.0172269867	-3.2166026891	 0.4935876555	 0.142628
