17
gdb 114593	2.86286	1.17913	0.97062	3.7184	74.2	-0.2485	0.0093	0.2578	1217.3405	0.137082	-417.967098	-417.958821	-417.957877	-418.000272	31.125	
O	 0.0593778783	 1.3562519262	-0.3090033993	-0.41681
C	 0.0701936111	 0.0394539095	 0.207510422	-0.073098
C	-1.3213457178	-0.5696135044	 0.0982136727	-0.044914
N	-1.8658456082	-0.5471308917	-1.3086409467	-0.350415
C	-2.1940240354	-1.9786273623	-1.210854374	-0.044919
C	-0.9460976752	-2.7707135348	-1.0792517637	-0.311016
C	-1.5102079149	-2.100405961	 0.1690603279	 0.153692
C	-1.883600722	-2.828344397	 1.3314149665	 0.188124
N	-2.1957824069	-3.4091789631	 2.283833597	-0.351782
H	-0.2328864893	 1.2747116898	-1.2258065224	 0.289366
H	 0.8047137293	-0.5922613222	-0.313673283	 0.090672
H	 0.3733407773	 0.1064642327	 1.2574050528	 0.12254
H	-2.0047962367	-0.0708247481	 0.7910090703	 0.104555
H	-2.7086195453	 0.0156156588	-1.347443799	 0.239164
H	-3.1417051696	-2.3845467608	-1.5416169527	 0.126701
H	-1.0660582068	-3.8484042674	-1.0831785215	 0.145469
H	-0.0264625879	-2.4017913842	-1.5214703269	 0.132671
