20
gdb 86124	2.15262	1.6753	1.02051	1.8092	82.26	-0.2293	-0.0001	0.2293	1215.5854	0.170348	-403.163268	-403.154154	-403.15321	-403.197094	34.152	
C	-0.5926323831	 1.2906076556	 0.2057095099	-0.414149
C	 0.0979566767	-0.0640422634	 0.2272696002	 0.092573
O	 0.1581170335	-0.4961575903	-1.151213303	-0.271287
C	 0.5896885333	-1.7540839971	-1.4641825217	 0.39151
C	 0.2543928928	-2.0280700946	-2.907407954	-0.43378
N	 1.1812448473	-2.6338406327	-0.772418834	-0.30591
C	 1.6404977531	-2.4998728207	 0.605805609	-0.216743
C	 2.1634457915	-1.1452445128	 1.0326164845	-0.081562
C	 1.4652214528	-0.0268472426	 0.8592703761	-0.055051
H	 0.0071536733	 2.013402231	-0.3559704033	 0.130219
H	-1.5756855639	 1.2159779872	-0.2649025168	 0.125842
H	-0.7187332249	 1.6629149718	 1.2268148157	 0.121695
H	-0.5330978938	-0.7856583432	 0.7656546298	 0.09365
H	 0.70995984	-1.2659606343	-3.5481465765	 0.134158
H	 0.6210528826	-3.013845978	-3.1891214217	 0.138491
H	-0.8278709849	-1.9736627296	-3.0635851426	 0.130114
H	 0.8351756067	-2.8199184421	 1.287027979	 0.118178
H	 2.4334431862	-3.2434960893	 0.7368612924	 0.11205
H	 3.1529243932	-1.1103062598	 1.4820333578	 0.097831
H	 1.8654731175	 0.9410410048	 1.1489805193	 0.09217
