16
gdb 26969	3.1625	1.32847	1.00939	1.4676	72.5	-0.1925	0.0311	0.2236	1151.1996	0.124045	-437.865895	-437.85783	-437.856886	-437.899159	30.018	
O	 0.0215204624	 1.3197876727	-0.2486032235	-0.421343
C	-0.0294624123	-0.0088786098	-0.0797592885	 0.363111
C	-1.0791343152	-0.8467450311	 0.1522686123	 0.128862
C	-0.4879026846	-2.1652910724	 0.2407129898	-0.24454
C	 0.8433323311	-2.0138966769	 0.0579225432	-0.031125
O	 1.1410488228	-0.6835610987	-0.1417192068	-0.190685
N	-2.4221861229	-0.4214178917	 0.2661522122	-0.174585
C	-3.4742205652	-1.3015360158	-0.2500747079	-0.224534
C	-3.2930939369	-1.1218873567	 1.2143893937	-0.224526
H	 0.9424281979	 1.5673257384	-0.3921544047	 0.307143
H	-0.9990594024	-3.0992111232	 0.418001295	 0.108979
H	 1.685082164	-2.6837021311	 0.0358738015	 0.134446
H	-4.2841095766	-0.7990163956	-0.7717506063	 0.119448
H	-3.1746118836	-2.2538139021	-0.6818392246	 0.114932
H	-2.870252015	-1.9522859369	 1.7753008547	 0.114945
H	-3.9683953236	-0.4859246192	 1.78010563	 0.119471
