13
gdb 29441	5.85219	0.97884	0.83858	3.24	65.06	-0.2134	-0.0227	0.1908	1253.683	0.089909	-489.932981	-489.92524	-489.924296	-489.966006	27.82	
O	 0.0829794852	 1.3616544057	 0.0187841454	-0.428003
C	 0.0604608027	 0.0202971494	-0.0590009369	 0.334775
C	-0.0082812545	-0.7572492438	-1.165974016	-0.157281
O	-0.0031010594	-2.0766032808	-0.7229136695	-0.150229
C	 0.0676684509	-1.9779520145	 0.6015983642	 0.547775
N	 0.0929736082	-3.1161303787	 1.380187192	-0.408261
C	 0.053121695	-4.439338739	 0.9802578898	 0.150469
O	-0.0123389417	-4.835305224	-0.1533985675	-0.27434
N	 0.1092221499	-0.7662034363	 1.0777754291	-0.44596
H	 0.1350581226	 1.5871518433	 0.9552164589	 0.308028
H	-0.0617557531	-0.5988969055	-2.2255829128	 0.152926
H	 0.147826889	-2.9231019492	 2.3694769131	 0.277647
H	 0.0907527153	-5.1023343766	 1.8659839803	 0.092452
