16
gdb 54557	3.15	1.5733	1.21098	3.0421	69.6	-0.2348	-0.0307	0.2041	1018.2536	0.122196	-437.777898	-437.770025	-437.76908	-437.811558	29.18	
C	-0.1490324436	 1.4818771289	-0.1584547824	-0.488275
C	-0.0121409309	-0.0045510807	 0.0819080702	 0.242789
O	 1.0408906893	-0.5664677873	 0.2670299181	-0.285661
C	-1.3026958408	-0.7777354453	 0.0847258638	 0.40694
O	-2.5241800439	-0.1631327176	-0.4258491171	-0.356005
C	-2.9628891045	-1.4828746454	 0.0010101402	 0.056187
C	-1.6465053931	-2.2132362955	-0.4315300845	-0.112232
N	-1.3799534817	-2.8345280105	 0.9053176419	-0.326586
C	-2.0321169818	-1.5365074635	 1.2559042676	-0.110201
H	 0.8343430471	 1.9514131211	-0.123362522	 0.140824
H	-0.6236719121	 1.6578283651	-1.1298342471	 0.15744
H	-0.8127811576	 1.9269694595	 0.5908043134	 0.148631
H	-4.0109658331	-1.7561854252	-0.1280892607	 0.103403
H	-1.3764284175	-2.6689694707	-1.3838004071	 0.104376
H	-2.0312654705	-3.6067771143	 1.0684682066	 0.21567
H	-2.2105259952	-1.1923376384	 2.2748420792	 0.102701
