21
gdb 84914	2.14111	1.92135	1.30125	1.089	83.44	-0.2341	0.0238	0.2579	1067.9794	0.18426	-387.073203	-387.065169	-387.064225	-387.105268	32.572	
C	-0.4713593395	 1.4640068478	 0.1315448661	-0.398074
C	 0.0116717618	 0.003384612	 0.0225084349	-0.038103
C	 0.5951901289	-0.2581829584	-1.3562104567	-0.080226
C	 1.8429227307	-0.0398441784	-1.7720211759	-0.039146
C	 3.0162401334	 0.518670061	-1.0113092334	-0.1334
O	 2.7377021456	 1.036729405	 0.2779294012	-0.242326
C	 2.3714774452	 0.0423156788	 1.1869001412	 0.119622
C	 1.421108806	 0.4476997391	 2.2679220367	-0.338713
C	 0.9539480177	-0.4581718422	 1.1419262683	-0.059337
H	 0.3698977987	 2.1584637159	 0.0746063349	 0.136632
H	-1.1549304976	 1.6947639955	-0.6917469615	 0.107405
H	-1.0070792156	 1.6324302762	 1.0712432995	 0.110618
H	-0.8864259093	-0.6213143577	 0.105890277	 0.074275
H	-0.1126295012	-0.6341327315	-2.0931284796	 0.083522
H	 2.0887054184	-0.2778270628	-2.807059693	 0.084439
H	 3.8090335751	-0.2491209811	-0.947574864	 0.097827
H	 3.4454626991	 1.354262736	-1.5786519554	 0.115967
H	 3.1731943649	-0.6602800856	 1.4206495955	 0.078518
H	 1.5507605956	 0.0228448461	 3.257141939	 0.109376
H	 1.0963463607	 1.4811922576	 2.2596721929	 0.126312
H	 0.8281412815	-1.5048887132	 1.4055585524	 0.084812
