19
gdb 29781	2.48129	1.49805	0.94991	2.9369	80.8	-0.1727	0.0486	0.2213	1237.982	0.158942	-419.235939	-419.2259	-419.224956	-419.270898	36.086	
C	-0.0783298734	 1.4350231721	 0.0122431869	-0.333714
N	-0.019005797	-0.0082560923	 0.0182018122	-0.041809
C	-0.0389394347	-0.8036663824	-1.0978220188	-0.177166
C	 0.0344523407	-2.1201145876	-0.6871919211	 0.048919
N	 0.0510730263	-3.3554183968	-1.4058089207	-0.625435
C	 0.1005463064	-2.1010018755	 0.7319230922	 0.24536
O	 0.1828087634	-3.2139387357	 1.5102553029	-0.462798
C	 0.0672489869	-0.7939245128	 1.1628952106	 0.197694
C	 0.1093328481	-0.2353913514	 2.5441379114	-0.512166
H	 0.8144659739	 1.8755499093	 0.4708609986	 0.134235
H	-0.1411057317	 1.783057015	-1.0204415161	 0.135201
H	-0.9571682143	 1.8030931449	 0.5541402819	 0.134229
H	-0.1032156661	-0.3706421544	-2.0839692831	 0.106348
H	 0.8422905095	-3.4183250142	-2.0382385212	 0.238542
H	-0.7870904734	-3.4837499202	-1.9634280049	 0.238536
H	 0.1829145517	-3.9521261343	 0.882475671	 0.289491
H	 0.9755860504	 0.417862646	 2.7148168222	 0.118096
H	-0.7876765673	 0.3453647536	 2.7978348875	 0.118103
H	 0.1767963705	-1.0625240132	 3.2546458086	 0.148333
