14
gdb 43322	2.66896	1.76437	1.23934	2.9935	75.05	-0.249	-0.0602	0.1888	978.7365	0.100429	-399.509439	-399.50207	-399.501126	-399.541162	28.43	
O	 0.0370857748	-0.0293596333	-0.0563600979	-0.318169
C	-0.0131281686	 1.1739016054	-0.0057827235	 0.335633
C	-1.1932495424	 2.0620504947	 0.0414399177	-0.219469
C	-0.7761921415	 3.3367668748	 0.0553172057	-0.029242
N	 0.6318436412	 3.5126202827	-0.0698948541	-0.123743
C	 1.3361563156	 3.0738210806	 1.1468991757	-0.246841
C	 1.1866779188	 2.136691956	-0.0280674776	-0.006327
C	 2.3205063126	 1.8092481953	-0.8371815897	 0.222938
C	 3.265797704	 1.4920242339	-1.5066982044	-0.372674
H	-2.2111241334	 1.7043332993	 0.0972550585	 0.132893
H	-1.3717303419	 4.2344503034	 0.1716725965	 0.138956
H	 2.3133372982	 3.5168114283	 1.3101066224	 0.147839
H	 0.7342758932	 2.8845753603	 2.0313680754	 0.138451
H	 4.0983165792	 1.2149997084	-2.1050877246	 0.199754
