17
gdb 44578	3.1396	1.57868	1.42007	2.9762	70.54	-0.2332	0.0201	0.2533	952.2344	0.138947	-418.003453	-417.996546	-417.995602	-418.034928	27.519	
O	-0.2073503374	 0.0734533656	 0.346545065	-0.357591
C	-0.1047162997	 1.2477441071	 0.1182242427	 0.400675
N	-1.0267973755	 2.2326285298	-0.1688906535	-0.317227
C	-0.0639841183	 3.3472324157	-0.1128642442	-0.007014
C	 0.0135798001	 4.1754781657	 1.1648677279	-0.034581
C	-0.1841212025	 3.4764079068	 2.4620364583	-0.259897
N	 1.1725862945	 3.75898563	 1.9919310426	-0.091977
C	 1.8427523588	 2.6244050311	 1.3163064242	-0.192647
C	 1.0601179396	 2.2726898426	 0.0382749022	-0.180833
H	-2.0311764349	 2.22925481	-0.0581385725	 0.249539
H	-0.0663724183	 3.9678857572	-1.0111419667	 0.089934
H	-0.1571733019	 5.2452989468	 1.0877967223	 0.093932
H	-0.488932163	 4.0416402068	 3.3386986118	 0.120233
H	-0.5443366347	 2.4505070039	 2.4431118589	 0.130545
H	 2.8554708931	 2.9493052944	 1.060028314	 0.116813
H	 1.9315737426	 1.7731301185	 1.9986607036	 0.130555
H	 1.6973318376	 2.1143772181	-0.8330156767	 0.10954
