13
gdb 21658	3.76473	1.91092	1.26913	1.5352	69.47	-0.203	0.0052	0.2081	884.7456	0.096961	-357.635801	-357.628569	-357.627625	-357.666897	27.589	
N	-0.0190263843	 1.3488439533	 0.1591161746	-0.599008
C	 0.0224824069	-0.0288573967	 0.051767056	 0.283193
N	-1.0789015078	-0.7682800896	 0.0358439538	-0.29758
N	-0.6179797277	-2.0486241402	-0.0079891475	-0.189991
C	 0.7228012834	-2.1348880747	-0.0269708146	-0.139747
C	 1.2065202111	-0.8339763323	 0.0082441647	 0.066521
C	 2.5385121941	-0.3755075935	-0.00388407	 0.198981
C	 3.661184899	 0.0642781867	-0.0239272545	-0.435264
H	 0.7840128768	 1.8123758694	-0.2413351589	 0.255439
H	-0.8932148108	 1.7505609103	-0.1486491321	 0.254178
H	-1.2844362985	-2.8001648028	-0.0211866868	 0.27793
H	 1.2438603569	-3.0779332458	-0.0653305717	 0.1418
H	 4.655017671	 0.437016896	-0.0274449931	 0.183549
