21
gdb 96506	2.28751	1.54674	1.10078	3.1114	78.72	-0.2386	-0.014	0.2246	1180.7242	0.183396	-424.252016	-424.243069	-424.242125	-424.285596	33.777	
C	-0.0758040693	 1.6177564737	 0.0084499878	-0.410854
C	-0.038764757	 0.0876798032	 0.0496794869	-0.112133
C	 0.5189127385	-0.4681663543	-1.2846813687	-0.066925
O	 1.0699420801	-1.768606188	-1.2214736768	-0.247851
C	 0.276317283	-2.7724460439	-0.6069940616	-0.082149
C	 0.6985803319	-2.9742737583	 0.8503829861	-0.195686
C	 0.3896732519	-1.7881908549	 1.7892018614	-0.298703
C	 0.8073607578	-0.4352157516	 1.2201743695	 0.404369
O	 1.7383067043	 0.193254723	 1.6666675461	-0.314651
H	 0.9412352577	 2.0160264116	 0.0366927197	 0.144217
H	-0.5702335858	 1.9717076951	-0.9020438241	 0.111267
H	-0.6184442854	 2.0240224105	 0.86662031	 0.119925
H	-1.0565352201	-0.2983665695	 0.180181422	 0.079954
H	-0.2745557295	-0.4175315732	-2.0477931398	 0.09324
H	 1.3441069375	 0.1697941179	-1.6166122143	 0.121603
H	-0.7967084072	-2.5435559503	-0.6913493855	 0.09089
H	 0.4542503168	-3.6978317897	-1.1664985018	 0.109487
H	 0.2154308866	-3.8751811027	 1.2464409626	 0.100889
H	 1.7780361358	-3.1603316612	 0.8505586153	 0.125314
H	-0.6903539018	-1.7558323819	 1.9838526092	 0.107805
H	 0.9039254141	-1.9247954653	 2.7436196762	 0.119995
