18
gdb 124858	3.59509	1.31869	1.05108	2.3615	77.56	-0.2361	0.0095	0.2455	1148.8201	0.149739	-398.150449	-398.14243	-398.141485	-398.183629	30.483	
C	 0.0201731445	 1.4970975199	-0.1438239796	-0.459693
C	-0.0096468186	-0.0134921173	-0.0243145389	 0.246197
C	 1.3006538738	-0.776958315	-0.1245325599	-0.289981
C	 0.611902437	-0.6583972252	 1.2035746986	-0.289982
C	-1.2142995941	-0.6654605094	-0.5908476009	 0.322091
N	-1.4061106964	-1.9806466453	-0.5733146747	-0.295713
N	-2.6081582716	-2.1069436202	-1.1851173579	-0.175224
C	-3.0821620102	-0.8987444859	-1.5383143563	 0.007414
N	-2.2297414616	 0.0406508191	-1.1799919899	-0.316859
H	 0.9395452335	 1.8922380323	 0.2985975881	 0.102671
H	-0.0222092141	 1.8129809625	-1.1904068383	 0.126051
H	-0.8324390776	 1.9523082622	 0.3687389708	 0.126111
H	 1.2738570787	-1.7387112866	-0.6231199076	 0.127206
H	 2.1993913383	-0.1937275325	-0.2959668866	 0.108581
H	 1.0351165476	 0.0066207279	 1.9491640347	 0.10859
H	 0.1215812896	-1.5404026595	 1.5984557777	 0.127192
H	-3.0124683901	-3.0197044938	-1.3135137407	 0.280859
H	-4.0269243087	-0.7548183734	-2.0408216885	 0.14449
