21
gdb 63646	3.60617	1.03991	0.9378	1.1667	79.33	-0.2438	0.0775	0.3214	1326.7305	0.181186	-424.192292	-424.18291	-424.181966	-424.226683	35.286	
C	 0.0837979828	 1.5556895093	-0.1554940381	-0.465811
C	 0.048262428	 0.0543777034	 0.0179314317	 0.390991
O	-1.1202435497	-0.5514504725	-0.485995401	-0.468368
C	 1.3187905012	-0.76729634	-0.0563592592	-0.35747
C	 0.5591695303	-0.6329378181	 1.2503863385	-0.057137
C	 1.1531149034	 0.0805772922	 2.4383238821	 0.112453
C	 2.1867022643	-0.6980984556	 3.2898317253	-0.284368
C	 3.1191032727	 0.4897862485	 2.9910626555	-0.06152
O	 2.148590059	 1.083229099	 2.1023604799	-0.288275
H	 0.9784205166	 1.9862697705	 0.2967058273	 0.154776
H	 0.0761701425	 1.8151035101	-1.222128696	 0.098617
H	-0.7990600347	 2.0117020717	 0.304791218	 0.118676
H	-1.1340245958	-0.4048196478	-1.4386956567	 0.276955
H	 1.2715336392	-1.7176598497	-0.57602687	 0.104732
H	 2.2583303244	-0.2304477386	-0.1321376491	 0.119464
H	-0.0371519803	-1.4953791349	 1.5390886425	 0.097668
H	 0.3540632075	 0.532959086	 3.0435387436	 0.078229
H	 1.9261998231	-0.863167083	 4.3360287444	 0.108592
H	 2.5002251046	-1.640608461	 2.837361286	 0.114482
H	 3.3320219707	 1.1416304044	 3.8479434336	 0.101761
H	 4.0592330801	 0.262005826	 2.4761042017	 0.105555
