15
gdb 32354	4.99214	1.06476	0.88245	3.373	74.85	-0.2054	-0.0639	0.1415	1243.9675	0.113737	-453.991579	-453.983721	-453.982776	-454.024496	28.774	
C	-0.0298510693	 1.4230839069	-0.0118997437	-0.233023
O	-0.0052928398	-0.0008840579	-0.012960247	-0.276903
C	 0.6181453599	-0.6065715922	 1.0255499685	 0.412421
C	 0.66555448	-1.9718795405	 1.0584756945	-0.101172
N	 1.2961714516	-2.5719821678	 2.110535216	-0.327437
C	 1.9046336166	-1.8916911761	 3.1699546631	 0.385285
O	 2.4572222149	-2.4778619945	 4.0868970027	-0.399111
C	 1.7780554565	-0.4455871628	 3.0029764061	-0.118927
N	 1.179767424	 0.1423398244	 2.0061165534	-0.292758
H	 0.9812499735	 1.8417333993	-0.0320408634	 0.132602
H	-0.5681484926	 1.7033608703	-0.9185011674	 0.130181
H	-0.5492296524	 1.8147114612	 0.8683469513	 0.132669
H	 0.2301339607	-2.6025203588	 0.2956864154	 0.14741
H	 1.3474639384	-3.580481991	 2.1623672212	 0.27104
H	 2.222824128	 0.1710463295	 3.7796699794	 0.137723
