18
gdb 22152	4.93664	0.576	0.53732	3.9912	74.05	-0.2557	-0.0038	0.2519	1960.569	0.144248	-476.205393	-476.19501	-476.194066	-476.242719	35.162	
C	-0.3516726574	 1.4805953399	-0.1179228972	-0.472344
C	-0.0135235913	 0.0245984538	 0.0647217518	 0.343449
C	 0.1577177078	-0.547428446	 1.448355545	-0.276367
C	 1.4535780873	-0.0675331015	 2.1112299316	-0.090424
O	 1.4970524335	-0.4842343232	 3.4805597115	-0.173143
C	 2.288282675	-1.5271094954	 3.7981609373	 0.17041
O	 2.3599781898	-1.9707728544	 4.9036528494	-0.27149
N	 0.1498199061	-0.7958428465	-0.9028327506	-0.156518
O	-0.0169831084	-0.1672644241	-2.1445364767	-0.396111
H	 0.4346075795	 1.9943134774	-0.6808855632	 0.150461
H	-1.2677900566	 1.5810815831	-0.7085349386	 0.154777
H	-0.490462858	 1.9850317784	 0.840415611	 0.121833
H	-0.6838077723	-0.2481643637	 2.0846116912	 0.126729
H	 0.164680544	-1.6388148841	 1.3867458407	 0.126274
H	 2.3255905817	-0.4521917648	 1.5678031734	 0.124055
H	 1.5160083789	 1.024193168	 2.1232486037	 0.129755
H	 2.8604784787	-1.9101546576	 2.9297761168	 0.079465
H	 0.1073769916	-0.8967834194	-2.760908357	 0.309188
