20
gdb 57447	2.81615	1.18681	1.07944	4.4451	76.68	-0.2439	0.0159	0.2597	1222.2261	0.167919	-440.28224	-440.272301	-440.271357	-440.316812	36.84	
C	-0.1351933045	 1.4278269489	-0.1533591838	-0.3969
C	-0.0336895406	-0.1007172013	-0.1052933223	 0.299857
C	 0.5298734804	-0.568079257	 1.2439491083	-0.419297
O	-1.3652836617	-0.5738467957	-0.2835151886	-0.442745
C	 0.8830958642	-0.5965047756	-1.2315424547	-0.011147
C	 0.8052126743	-1.9987828427	-1.7672350669	-0.269833
N	 0.3888924273	-0.8721706941	-2.5665491448	-0.069825
C	-0.9021115846	-0.7244732165	-3.0559650767	 0.152732
O	-1.5637051837	-1.6275633977	-3.5050452496	-0.301657
H	 0.8518138209	 1.8875707029	-0.0507561688	 0.116653
H	-0.5728968729	 1.7549269903	-1.100015972	 0.130844
H	-0.77372667	 1.7838091054	 0.6593007067	 0.126885
H	-0.0989984003	-0.1995029681	 2.0590991961	 0.129642
H	 0.5623966936	-1.6621877505	 1.2953019941	 0.113879
H	 1.5485102847	-0.1991805343	 1.3996285554	 0.123291
H	-1.4007795521	-1.5096807746	-0.0593332984	 0.287425
H	 1.8674902831	-0.1287924427	-1.2154929733	 0.099609
H	 1.7103409249	-2.5116937566	-2.0805666801	 0.127158
H	 0.0126469825	-2.6526126072	-1.4095968083	 0.118539
H	-1.2166505755	 0.3335964871	-3.0836437523	 0.084892
