17
gdb 68202	3.72046	1.23116	1.14422	3.8031	71.91	-0.2504	0.0149	0.2652	1084.2556	0.137708	-417.979949	-417.972423	-417.971479	-418.011767	29.746	
O	-0.1122579236	 1.4151385006	-0.0365313184	-0.480629
C	-0.0080294734	 0.0326719749	 0.0149267789	 0.402257
C	 0.2965188682	-0.7967523518	 1.2993215334	-0.253159
N	-0.4232819904	-1.9243560834	 0.5815923968	-0.129465
C	-1.2856322622	-0.8308010987	-0.0257899191	-0.211802
C	 0.5169508315	-2.1511731725	-0.5734208956	-0.116392
C	 0.8770736137	-0.6912959476	-1.0244013624	-0.316638
C	 1.6727405294	-2.9529646926	-0.1762282144	 0.293594
N	 2.6033609284	-3.5698239173	 0.1216393476	-0.326145
H	 0.7694341234	 1.7963522459	-0.1081936669	 0.288369
H	 1.3301537765	-1.0123283028	 1.5826219259	 0.120698
H	-0.2851647643	-0.4799387252	 2.165958257	 0.123271
H	-2.0454317283	-0.5198761422	 0.6923868455	 0.12572
H	-1.7410778588	-1.071841129	-0.9906545773	 0.106858
H	-0.0223004369	-2.6962204725	-1.3525967788	 0.132032
H	 0.5741602293	-0.4806246674	-2.0524317204	 0.120665
H	 1.9395969274	-0.4598774685	-0.9126920216	 0.120763
