21
gdb 42105	3.5175	1.21039	1.19371	2.7107	77.65	-0.2358	0.0787	0.3145	1154.3829	0.184655	-424.240429	-424.232237	-424.231293	-424.274368	31.168	
C	 0.1156560147	 1.637964236	-0.1794154823	-0.224063
C	 1.5135329882	 1.8928459978	 0.3871299044	-0.067609
O	 2.275162567	 0.7358239635	 0.0612666566	-0.310215
C	 1.4072651773	-0.3967016405	-0.1527903289	 0.394364
C	-0.0242926922	 0.1281723157	 0.0576565099	-0.313201
C	 1.742430451	-0.9906467109	-1.5339926085	-0.260592
C	 3.0058365889	-1.7879710536	-1.2127426681	-0.071094
O	 2.7710577078	-2.3532712768	 0.0769546314	-0.265934
C	 1.8286163814	-1.5501032241	 0.779169306	-0.099064
H	-0.6603752266	 2.2292223305	 0.3126361493	 0.102725
H	 0.0915082468	 1.8655414931	-1.2502503578	 0.108763
H	 2.0139364814	 2.7657944072	-0.0434749106	 0.105914
H	 1.4711823835	 2.0307215464	 1.4797645591	 0.089153
H	-0.3439021967	-0.0596747394	 1.0895267875	 0.106089
H	-0.7448723931	-0.3571776287	-0.6042479408	 0.106635
H	 0.941921568	-1.6637432875	-1.8598269202	 0.099438
H	 1.8910236218	-0.215446153	-2.287938474	 0.103076
H	 3.2038099515	-2.6068379099	-1.9107943918	 0.100717
H	 3.8831009765	-1.1254552473	-1.189914388	 0.103798
H	 2.2746954177	-1.1434626501	 1.69496162	 0.102906
H	 0.966534725	-2.1735867984	 1.0546828468	 0.088194
