15
gdb 4867	4.60373	1.39103	1.1359	2.579	65.8	-0.1873	0.0266	0.2139	1022.7476	0.119345	-399.819296	-399.811378	-399.810434	-399.851893	28.751	
N	 0.235508215	 1.2787176606	-0.0370101658	-0.594115
C	-0.0319570663	-0.0825635446	-0.0279801642	 0.36572
C	-1.1735326831	-0.8171334595	 0.104808602	-0.257138
C	-0.7466071662	-2.1878323371	 0.1317335	-0.242624
C	 0.60425968	-2.1959678406	 0.0184584004	 0.32178
C	 1.6499199369	-3.2463772244	-0.0549459405	-0.181305
O	 2.2282427284	-3.4023453524	-1.351670255	-0.413936
O	 1.0551782566	-0.8868695856	-0.0781219988	-0.218504
H	 1.052785473	 1.5141539775	-0.5856204852	 0.254629
H	-0.5600664576	 1.8315141472	-0.324348606	 0.256888
H	-2.1798388102	-0.4372014524	 0.1752930745	 0.09683
H	-1.3761376861	-3.0602127527	 0.2190605971	 0.108128
H	 2.4358305177	-3.0497163441	 0.6915118458	 0.098378
H	 1.1937258468	-4.2087305711	 0.1919271684	 0.122583
H	 2.5762312851	-2.5422392708	-1.6084160328	 0.282683
