18
gdb 19426	3.89233	1.91822	1.60879	1.8271	71.01	-0.255	0.0936	0.3486	855.7473	0.15547	-347.78719	-347.780484	-347.779539	-347.817803	27.083	
C	-0.0591407128	 1.4944299863	-0.0001292564	-0.319833
C	 1.2744764786	 0.7890307007	-0.0586589555	-0.318007
C	-0.0072557116	-0.0077126281	 0.0171673046	 0.378697
C	-0.3841837644	-0.8341776064	 1.2512247342	-0.305019
C	-0.3261253135	-2.3110277886	 0.7799365517	-0.243548
C	-0.6015306763	-2.2292090288	-0.7106933752	 0.048916
O	-1.7277433658	-1.4049371406	-1.0456753238	-0.269164
C	-0.4072122228	-0.8453627304	-1.1602638519	-0.028047
H	-0.3292674934	 1.9997357265	 0.9215006659	 0.11327
H	-0.4188734475	 1.9875687176	-0.8972105085	 0.11509
H	 1.8206681361	 0.8034825427	-0.9969498347	 0.110571
H	 1.9075243809	 0.8127636957	 0.8223285472	 0.111883
H	 0.2719679519	-0.6392103564	 2.1036161475	 0.096515
H	-1.4050579689	-0.5885434199	 1.5562187617	 0.119321
H	 0.6728760677	-2.7391247317	 0.9281152437	 0.103413
H	-1.0398819202	-2.9490664408	 1.3096921777	 0.108077
H	-0.4448088503	-3.0898047573	-1.3565978561	 0.089873
H	-0.0960623678	-0.5775485705	-2.1675690519	 0.087993
