16
gdb 26535	2.34279	1.86787	1.04778	8.0594	75.3	-0.2155	-0.0125	0.203	1082.7958	0.125959	-434.132727	-434.124306	-434.123362	-434.165815	31.319	
C	-0.0088720097	 1.527089607	 0.0049498471	-0.52035
C	-0.0264200303	 0.0231099559	-0.0135422487	 0.102873
C	-1.1830316186	-0.6920983444	-0.0184665987	 0.310129
N	-2.4677724247	-0.1658176738	-0.0891740885	-0.589622
N	-1.1234931438	-2.0728563961	-0.0089007814	-0.354723
C	 0.0933281	-2.700300203	-0.0160053807	 0.089951
N	 1.2279414765	-2.1093643075	-0.0118599933	-0.307186
C	 1.2603313571	-0.6886557103	-0.0238300799	 0.32741
O	 2.3298229123	-0.1050405107	-0.0279278617	-0.369879
H	 1.0090585842	 1.8524883203	 0.2254922265	 0.167684
H	-0.2936057988	 1.9616200452	-0.9617923513	 0.127346
H	-0.6804669366	 1.9433763951	 0.767322206	 0.105971
H	-2.4900749834	 0.8379622407	 0.0198972103	 0.266121
H	-3.1418874212	-0.6089684329	 0.5228773886	 0.252192
H	-1.9661172793	-2.6080184182	-0.149207578	 0.262587
H	 0.0376221663	-3.7884336371	-0.0209232664	 0.129494
