21
gdb 98691	3.47374	0.99923	0.9133	3.2801	81.75	-0.2403	0.0501	0.2904	1401.681	0.180571	-420.43015	-420.419602	-420.418658	-420.465861	37.799	
C	-0.2769531665	 1.3079853854	-0.1786316513	-0.323959
N	 0.0709730432	-0.0967421615	-0.0964656373	-0.331279
C	 0.7618620424	-0.7179296509	-1.1067080432	 0.439784
O	 0.9829552288	-0.2115851768	-2.1909468893	-0.400907
N	 1.2461562064	-1.9851650259	-0.7449309688	-0.158827
C	 0.4171360708	-3.0736617334	-0.2397452094	-0.305163
C	 1.0951259048	-3.1700159195	-1.5787865485	 0.326257
C	 0.2348921663	-3.0956147238	-2.8255726372	-0.442066
C	 2.3499205819	-4.00893671	-1.7157652357	-0.443846
H	 0.4234121759	 1.9451073712	 0.3770215909	 0.12135
H	-0.2419962078	 1.5928589623	-1.2305796284	 0.168557
H	-1.2865648239	 1.4778910314	 0.2086598654	 0.119878
H	 0.1057684383	-0.5271302788	 0.8131990802	 0.246716
H	 0.8122362338	-3.6119802616	 0.6191103133	 0.113387
H	-0.6612541425	-2.9271741391	-0.2326317903	 0.120041
H	-0.6906386554	-2.5428593239	-2.6484742919	 0.123236
H	 0.7710861297	-2.5894411567	-3.6322423217	 0.146773
H	-0.0247870101	-4.106503683	-3.1572784373	 0.111385
H	 2.0966076847	-5.0468317289	-1.957570214	 0.11552
H	 2.983397781	-3.6194568965	-2.5196264245	 0.131009
H	 2.9303846881	-3.9962906	-0.790071641	 0.122155
