17
gdb 4961	3.18924	2.24616	1.33972	2.0205	77.75	-0.2414	-0.0122	0.2292	917.1329	0.143633	-326.801926	-326.794486	-326.793542	-326.833394	28.087	
C	 0.0120723855	 1.5263557958	-0.0242711441	-0.50152
C	 0.0096364489	 0.0195522472	-0.0164411386	 0.246041
C	-0.0095598923	-0.7070164839	-1.2038411409	-0.149854
C	-0.0113931021	-2.0975756216	-1.1693469932	-0.124543
C	 0.0063285395	-2.7169269331	 0.0728743106	-0.01142
N	 0.0249555022	-2.0460988979	 1.2275673263	-0.311804
C	 0.0266837913	-0.7086495589	 1.1907081394	 0.258027
C	 0.0480047125	-0.0047052611	 2.5234555525	-0.482156
H	 0.8997970413	 1.9330516848	 0.4742857361	 0.133323
H	-0.003615323	 1.9133932883	-1.0465217119	 0.121852
H	-0.857817771	 1.9360618687	 0.5024371425	 0.133307
H	-0.0230632688	-0.1810338425	-2.154412118	 0.096398
H	-0.0261755404	-2.6842576355	-2.0810907987	 0.096768
H	 0.0056638282	-3.8018218964	 0.1508983107	 0.103221
H	 0.9296970482	 0.6394458777	 2.6253608437	 0.126188
H	-0.8290834262	 0.6408550428	 2.6526733041	 0.126225
H	 0.0597638862	-0.7461011044	 3.3229170695	 0.139948
