18
gdb 8924	2.3883	1.77012	1.27308	4.2213	68.36	-0.2542	0.0238	0.278	1028.5329	0.152286	-381.116746	-381.107058	-381.106114	-381.151442	33.743	
C	-0.4599131081	 1.1510041576	-0.0055389616	-0.255565
O	 0.4032295159	 0.0311536052	 0.1200796414	-0.257935
C	 0.8052955056	-0.5749327999	-1.0981510493	 0.115883
C	 2.3062195349	-0.8397503448	-1.0243820379	-0.408944
C	 0.0008379939	-1.8994180525	-1.2986057089	-0.141463
N	 0.0063142109	-2.7992836065	-0.1470449174	-0.497099
C	-1.3945325081	-1.5860527216	-1.6590938857	 0.316273
N	-2.4763519882	-1.3084564785	-1.9558580386	-0.332299
H	 0.0133934348	 1.9544202888	-0.5881713554	 0.110704
H	-1.415662548	 0.8886590425	-0.4731780394	 0.145167
H	-0.6471344348	 1.5160214798	 1.0071026317	 0.131495
H	 0.5934445993	 0.0925830787	-1.9451607016	 0.089053
H	 2.5431443022	-1.4841906917	-0.1727920047	 0.122611
H	 2.6697824177	-1.3175189005	-1.9397419668	 0.117903
H	 2.8415574447	 0.102700489	-0.8878422506	 0.131719
H	 0.4305626694	-2.4344539549	-2.1544791522	 0.126276
H	 0.9269247842	-3.2133265528	-0.0446888884	 0.238495
H	-0.1656594463	-2.2432286679	 0.6872506852	 0.247727
