18
gdb 128819	3.23626	1.10032	0.8628	1.2221	74.9	-0.2501	0.0027	0.2529	1342.2243	0.148048	-435.266782	-435.25754	-435.256595	-435.301737	32.091	
C	 0.1946680301	 1.3569988685	-0.0988702692	-0.222004
O	 0.2931610744	-0.0478411638	-0.1244297515	-0.233961
C	 0.3646582274	-0.6094163043	 1.1744140124	-0.187967
C	 0.522119221	-2.088402631	 1.0534912003	 0.248588
N	-0.3143421935	-2.9366296642	 1.6536477768	-0.269539
N	 0.1628584404	-4.1236372168	 1.3115379652	-0.086891
N	 1.2361789838	-4.129208768	 0.5278709632	-0.258308
C	 1.4957176094	-2.83286563	 0.3471309926	 0.25753
C	 2.6402349218	-2.3512089721	-0.4820510684	-0.507473
H	 1.0652292083	 1.8196004954	 0.3932631377	 0.103987
H	 0.1504270508	 1.6992497887	-1.1353427003	 0.129675
H	-0.713329817	 1.6924842956	 0.426246516	 0.107914
H	 1.2183778408	-0.1715776959	 1.7214022636	 0.095585
H	-0.5436037832	-0.3883328671	 1.7546170197	 0.112527
H	-0.2735011562	-4.9778112452	 1.6168660476	 0.290219
H	 2.3118203057	-1.5600921748	-1.1603924891	 0.150371
H	 3.437877954	-1.934308438	 0.1444522516	 0.12978
H	 3.0614685819	-3.1755005271	-1.0608219784	 0.139967
