21
gdb 88530	3.2918	1.27337	1.13733	2.2422	83.31	-0.2248	0.0792	0.304	1169.1064	0.183527	-383.158939	-383.150758	-383.149814	-383.192111	32.209	
C	 1.2217324119	 0.9911382742	-0.8852491565	-0.418357
C	 0.799711664	-0.3265924668	-0.2721676437	 0.016898
C	 1.8065675847	-1.3495094487	 0.1332995614	-0.269631
N	 0.9934114618	-0.6699826942	 1.1388601779	-0.200378
C	 1.6123950596	 0.2030117465	 2.0793589699	 0.358573
C	 0.9370623368	 1.3369124601	 2.8804686159	-0.209285
N	 2.3428429605	 1.2967859312	 3.5030058989	-0.139894
C	 2.1736174019	-0.2308046356	 3.4507116481	-0.203765
C	 2.8497218018	 1.1700540608	 2.0651825301	-0.225337
H	 2.242546886	 1.26719984	-0.6136978419	 0.127731
H	 1.1758826071	 0.9169983615	-1.9771071966	 0.123896
H	 0.5534705639	 1.8047465035	-0.5830480368	 0.125125
H	-0.1544792618	-0.6940690448	-0.6483531047	 0.093058
H	 1.6179392476	-2.4123926662	 0.0055174759	 0.11519
H	 2.8536836885	-1.0603465714	 0.0486273703	 0.109224
H	 0.7160878951	 2.2762084857	 2.3657780399	 0.09653
H	 0.1415222377	 1.064909428	 3.5791282432	 0.10372
H	 1.4677055363	-0.6194836521	 4.1892398715	 0.102747
H	 3.1220768805	-0.7746979302	 3.4749072622	 0.096527
H	 3.8503168094	 0.733991346	 1.9947490104	 0.09818
H	 2.7783765168	 2.1038712327	 1.5018643245	 0.099246
