19
gdb 70304	3.49908	1.2876	1.17419	0.8476	74.65	-0.2567	0.0784	0.3351	1103.0884	0.159373	-423.003409	-422.995539	-422.994595	-423.035356	31.868	
O	-0.0691664703	 1.3928936953	 0.0663551637	-0.47331
C	-0.0027127604	-0.0001595642	 0.0146485143	 0.402344
C	-0.4342800613	-0.7248820006	-1.2355918826	-0.357994
C	-1.2828375077	-0.7980903887	 0.0241736669	-0.079164
C	-1.091287949	-2.0105850481	 0.9219000045	-0.291234
C	 0.4263056291	-2.1060692423	 1.0841728382	 0.406389
C	 1.1080749223	-3.198064697	 1.779435083	-0.254652
O	 1.0803352184	-3.155771985	 0.3498849272	-0.272771
C	 1.0030649767	-0.7043187458	 0.9183092659	-0.354317
H	 0.6400215249	 1.7450645788	-0.4823742704	 0.28205
H	-0.8249772223	-0.0994143601	-2.0307065325	 0.110339
H	 0.1099329584	-1.6047839	-1.5638461853	 0.133853
H	-2.2346975911	-0.2805325364	 0.0195713004	 0.092535
H	-1.5682256197	-1.83608267	 1.8943234539	 0.106352
H	-1.4903277684	-2.9428864834	 0.510985252	 0.113239
H	 2.0835695864	-3.0266521239	 2.2342353934	 0.110128
H	 0.523715499	-3.9971538352	 2.2354924401	 0.110422
H	 2.0211991474	-0.7474103769	 0.5185605426	 0.105126
H	 1.0299442576	-0.1757421965	 1.8790380247	 0.110667
