21
gdb 26383	4.00248	0.89782	0.86933	3.1943	85.05	-0.2136	0.0374	0.251	1452.7035	0.183555	-383.325626	-383.31627	-383.315326	-383.36119	34.604	
C	-0.0125149905	 1.5501183768	 0.003197684	-0.395954
C	 0.0437536073	 0.0203923815	 0.0830685146	 0.062561
C	 0.7463793593	-0.4440999094	 1.3643629024	-0.390689
C	-1.3747047407	-0.5816817862	-0.039288858	-0.310599
C	-1.3801363216	-2.0718275636	-0.1797870864	 0.349321
N	-0.8524554976	-2.7549320378	-1.1749525919	-0.298603
C	-1.0794259931	-4.0803591668	-0.8849395781	-0.087523
C	-1.7532477572	-4.2072285884	 0.2992347668	-0.119233
N	-1.9385203421	-2.9142312241	 0.7413311048	-0.275775
H	 0.9918356222	 1.9834621697	 0.0490132845	 0.111811
H	-0.4802743499	 1.8853824664	-0.9285210293	 0.112359
H	-0.5907627399	 1.9689846162	 0.8362933355	 0.1071
H	 0.6150640075	-0.3539213314	-0.7750052592	 0.104065
H	 0.8090495343	-1.5352765442	 1.4141756708	 0.124128
H	 1.7658196959	-0.0487532245	 1.4179726845	 0.11335
H	 0.2101150674	-0.093898315	 2.2558482942	 0.100686
H	-1.9740472571	-0.291034762	 0.8340787926	 0.084351
H	-1.8681899623	-0.1468335398	-0.9164162332	 0.12184
H	-0.7470171275	-4.8659098284	-1.5466244762	 0.102962
H	-2.1115469492	-5.0583705331	 0.8535544998	 0.123371
H	-2.4029991651	-2.6380759158	 1.5900642279	 0.260471
