17
gdb 122734	4.79952	0.51703	0.47835	1.9971	88.27	-0.25	-0.0288	0.2212	2198.1176	0.132706	-421.749524	-421.739376	-421.738432	-421.786064	35.275	
O	-0.0206829094	 1.4275303577	-0.1036008284	-0.419349
C	 0.0106775291	 0.0196236294	 0.0032112486	-0.061383
C	-1.3915857428	-0.567654281	 0.0231456696	-0.060381
O	-2.0021219843	-0.1912956406	-1.2020915152	-0.258872
C	-3.3702296867	-0.5440773072	-1.2717528366	-0.231838
C	-3.9350323021	-0.1057993225	-2.5381506194	 0.309811
C	-4.4347564002	 0.2473584369	-3.581050924	-0.162741
C	-4.9900117492	 0.6475677087	-4.7568400069	 0.290836
C	-5.484266225	 1.0024397612	-5.7995724526	-0.550493
H	-0.5903226316	 1.6229057904	-0.8570245487	 0.292174
H	 0.577562396	-0.4380016922	-0.8229995632	 0.098056
H	 0.5237350764	-0.2244125047	 0.9391522047	 0.110767
H	-1.3596389969	-1.6647203156	 0.1250390611	 0.09163
H	-1.9596931647	-0.1566028579	 0.8728138102	 0.099327
H	-3.4921112098	-1.6363112017	-1.1709483235	 0.127818
H	-3.9303488755	-0.0863392182	-0.4380872441	 0.129175
H	-5.9168523433	 1.3153753076	-6.7173914315	 0.195463
