15
gdb 66665	4.23685	1.27778	1.19797	5.2469	74.8	-0.2438	-0.0076	0.2362	1046.0233	0.112087	-379.5669	-379.55961	-379.558666	-379.598533	28.085	
C	-0.0942124143	 1.4693345481	 0.0340861626	-0.524478
C	 0.0813236264	-0.0080566564	 0.0012829814	 0.356495
C	 0.2818152868	-0.9862101186	-1.1034327656	-0.109842
C	 0.8867848652	-2.0157641556	-0.1199809826	-0.157983
C	 0.6863876141	-1.0232264508	 1.0157251349	-0.220721
C	-0.4357473338	-1.9690177044	 0.6259348196	 0.327859
C	-1.1422887498	-2.9503554777	 1.3643444508	 0.145666
N	-1.7083362397	-3.7560514227	 1.973909168	-0.349026
N	-1.0344467408	-0.9633154875	-0.3582797996	-0.239689
H	 0.8737906588	 1.9816352644	 0.0252259849	 0.131058
H	-0.6652619991	 1.7940741827	-0.8408954342	 0.143612
H	-0.6408185912	 1.7794994256	 0.9309209902	 0.138605
H	 0.3330021511	-0.8712396834	-2.1789473846	 0.112199
H	 1.591457709	-2.8288376469	-0.2132059351	 0.123725
H	 1.2081393774	-0.9325903968	 1.9575399291	 0.122522
