12
gdb 15456	3.89365	1.85144	1.26475	5.8223	65.29	-0.2708	-0.0756	0.1952	874.1134	0.085346	-377.555466	-377.54894	-377.547995	-377.586356	23.71	
N	-0.0560966026	 1.296697607	 0.0102864257	-0.529651
C	-0.0273633385	 0.0370413461	 0.003702007	 0.357089
O	 1.0964526132	-0.7510095997	-0.0080444264	-0.242662
C	 0.7327562058	-2.1316845766	-0.0125277982	-0.131596
C	-0.7636737305	-2.1377351061	-0.0022428688	-0.210336
C	-1.1990439671	-0.8713331546	 0.00717628	 0.146347
C	-2.5442874062	-0.4171367582	 0.0187545116	 0.254472
N	-3.6453676375	-0.0632889292	 0.028140674	-0.324553
H	 0.8859857614	 1.6889951946	 0.0057791244	 0.235796
H	 1.1499666991	-2.6167545181	-0.9051623363	 0.146717
H	 1.1621910535	-2.6257376848	 0.8693184475	 0.146717
H	-1.3656178005	-3.0355898304	-0.0026422303	 0.151659
