20
gdb 40157	3.75863	1.18611	1.0868	2.0311	79.03	-0.2346	0.0757	0.3103	1187.6258	0.171893	-403.107984	-403.09991	-403.098965	-403.141432	31.761	
C	-0.1042943553	 1.3515184373	-0.2023183632	-0.324786
C	 1.302518496	 0.8419375803	 0.0827864108	-0.3443
C	 0.1534518891	-0.1010706579	 0.1124576929	 0.460615
C	-0.4033354603	-0.7936740701	 1.3430492509	-0.38311
C	-1.4907627455	-1.6771533181	 0.7280173841	 0.309122
C	-2.1698408429	-2.7578582119	 1.4766152311	-0.296157
N	-2.9119692387	-1.5457403292	 1.0740608925	-0.352095
C	-1.1538148914	-1.7479314467	-0.7686715367	-0.134029
O	 0.0729372987	-1.0394027703	-0.9343215787	-0.291531
H	-0.5893285831	 1.9748106527	 0.5419353668	 0.107378
H	-0.339926283	 1.5972673531	-1.2315620021	 0.12166
H	 1.9808893978	 0.7583108721	-0.7588293872	 0.126422
H	 1.774372454	 1.1129317907	 1.021439199	 0.112963
H	 0.3730574596	-1.4072783489	 1.8150381573	 0.113021
H	-0.7937636999	-0.0997491667	 2.0927083819	 0.102649
H	-2.4747515889	-3.6692336609	 0.9677685103	 0.117903
H	-1.9141602307	-2.8935507039	 2.5253603417	 0.110135
H	-3.0275683207	-0.9286120137	 1.8745700779	 0.227413
H	-0.9987950156	-2.7675042964	-1.1338292786	 0.107617
H	-1.965803579	-1.2837483016	-1.3451034708	 0.109107
