15
gdb 46809	2.72049	1.66031	1.18702	3.6461	73.88	-0.2469	0.0022	0.2491	1019.5887	0.11316	-416.758135	-416.750519	-416.749575	-416.790185	29.267	
N	-0.0272004161	 1.2462880176	 0.3173777438	-0.53937
C	 0.0014659122	 0.0254376569	 0.0104675997	 0.384546
O	 1.1258166258	-0.6931129109	-0.286964831	-0.253054
C	 0.8099346248	-1.9802177358	-0.8465829227	-0.085359
C	-0.6725327891	-2.1782696603	-0.6185918362	-0.132412
N	-1.0174012325	-2.0719351462	 0.7985400196	-0.362096
C	-1.1932357026	-0.8770489122	-0.098266867	 0.12279
C	-2.4977287887	-0.3654799985	-0.3680200003	 0.19157
C	-3.6073737302	 0.0432459377	-0.5816160307	-0.373395
H	 0.9126473922	 1.6453065502	 0.2923322685	 0.227666
H	 1.0534884557	-1.97545901	-1.9151797788	 0.120403
H	 1.4201952184	-2.7296073339	-0.3348032688	 0.132607
H	-1.2559635437	-2.7966874696	-1.2903971622	 0.120375
H	-1.9428931676	-2.4691563025	 0.9520086776	 0.24807
H	-4.5815374985	 0.4219098477	-0.7697091915	 0.197659
