14
gdb 28949	3.08737	1.26038	0.99636	3.0852	67.36	-0.2208	0.0057	0.2266	1136.5947	0.102463	-432.90993	-432.902039	-432.901095	-432.943586	28.404	
O	 0.355861982	 1.3220151524	 0.076621797	-0.427985
C	 0.180737171	-0.0061732566	-0.026569271	 0.458204
N	 0.1746944361	-0.7197464735	-1.1156171665	-0.371492
C	-0.037394878	-2.0191744948	-0.6761800425	-0.089164
C	-0.1515378183	-2.0645155812	 0.6791097585	-0.133234
N	-0.0040456025	-0.7421146891	 1.1060092862	-0.055239
C	-0.0439345499	-0.2377351519	 2.4608049931	-0.309496
C	-1.3887124094	-0.2828381687	 3.0556302478	 0.273371
N	-2.437425123	-0.3273620905	 3.5364897176	-0.290808
H	 0.477091703	 1.6533907709	-0.822076372	 0.321298
H	-0.0923927679	-2.8391830599	-1.3747092083	 0.119615
H	-0.3263804695	-2.8639677562	 1.378991997	 0.139257
H	 0.6389527892	-0.8108490082	 3.0976298468	 0.172659
H	 0.3060118473	 0.7974614674	 2.4485798062	 0.193013
