15
gdb 8053	3.58852	1.85921	1.52176	2.0032	68.2	-0.2474	0.024	0.2713	851.907	0.118001	-362.544139	-362.536919	-362.535975	-362.575272	28.026	
O	-0.0702820785	 1.3731886677	 0.0541356423	-0.458997
C	 0.0545082031	-0.0008453862	 0.0353603014	 0.345981
C	 0.5295385981	-0.9581038929	-1.0855039486	-0.231099
N	 0.0790540641	-1.9218812699	 0.0219506405	-0.142745
C	 0.7987967306	-0.9667896274	 0.9910869452	-0.249347
C	-1.1461521092	-0.9685699675	 0.1684236022	-0.199836
C	-1.9142473372	-1.0536269074	 1.3904131048	 0.340207
C	-2.5873183509	-1.1139246222	 2.3848280044	-0.427894
H	 0.8085292277	 1.767253003	 0.0219800196	 0.285828
H	-0.0664145775	-1.0270933634	-1.9990103065	 0.107458
H	 1.6004896929	-1.0196328016	-1.2917173297	 0.101392
H	 1.8874443797	-1.0262613353	 0.9154235562	 0.099058
H	 0.4532932891	-1.0457176221	 2.0220846573	 0.126582
H	-1.7999954692	-1.0292558096	-0.7064766933	 0.104932
H	-3.1774630826	-1.1679015252	 3.2662890341	 0.198478
