19
gdb 46988	2.60853	1.7353	1.40713	3.4065	73.6	-0.2268	-0.016	0.2107	988.524	0.162416	-423.068058	-423.060793	-423.059849	-423.099811	28.984	
O	 0.0538508675	-0.0614248658	-0.0783988436	-0.319546
C	-0.0163008747	 1.1375733959	 0.0425454061	 0.408121
C	-1.3385780282	 1.8852100842	 0.2111669396	-0.318168
C	-1.2137880037	 3.148596136	 1.0921696839	-0.21754
C	 0.139662955	 3.8367709543	 0.8771786805	 0.096242
C	 0.4063572643	 4.2508634607	-0.590835633	-0.233204
C	 1.1692452293	 3.0328155058	-1.1779488219	-0.248481
C	 1.2156521058	 2.0467691387	 0.0137576965	-0.010542
O	 1.170405063	 2.8851886999	 1.1711904044	-0.26064
H	-1.652446037	 2.1712403431	-0.8029747178	 0.128103
H	-2.0920964849	 1.1867572062	 0.5825421007	 0.127169
H	-2.0379089388	 3.8425993163	 0.8912987656	 0.099547
H	-1.2778221164	 2.8643436632	 2.1476830229	 0.116916
H	 0.2613366951	 4.6659177687	 1.5786797639	 0.08343
H	-0.5200527136	 4.4689597337	-1.1285744764	 0.10565
H	 1.0242985101	 5.1503112447	-0.6269757032	 0.113035
H	 0.6811965506	 2.6015924516	-2.0561913341	 0.114357
H	 2.1862510762	 3.3051943196	-1.4676446052	 0.118676
H	 2.1175041605	 1.4347814133	 0.0589749212	 0.096875
