22
gdb 57911	3.06037	1.00261	0.91662	3.7504	84.7	-0.2324	0.0313	0.2638	1425.1698	0.193382	-404.374784	-404.364408	-404.363464	-404.412625	36.267	
C	 0.7153123647	 1.6287795598	-0.492197457	-0.377822
C	 0.0794724536	 0.3552581993	 0.0854898966	-0.081332
C	 0.0838446541	-0.7881611579	-0.9432195737	-0.378376
C	 0.8729014141	-0.0867099712	 1.3176943237	 0.378888
O	 2.0746414623	-0.3073152353	 1.2736366971	-0.399294
N	 0.1777472881	-0.2291628342	 2.47319056	-0.072124
C	-1.2272583984	-0.1339579464	 2.8837996212	-0.169084
C	-0.7924287112	-0.59918701	 4.3044590102	-0.245847
C	 0.6677916181	-0.6902598339	 3.7719462824	-0.158028
H	 1.7716907726	 1.4484576288	-0.7076556289	 0.142405
H	 0.211759809	 1.9272947804	-1.4170616296	 0.10639
H	 0.6530185901	 2.4637329593	 0.2131937213	 0.110864
H	-0.9566562189	 0.571093832	 0.3710412217	 0.070505
H	 1.1136814557	-1.0574733053	-1.1935452357	 0.141168
H	-0.4140514984	-1.6825969833	-0.5543894598	 0.109669
H	-0.4320126638	-0.4846587143	-1.8595272148	 0.109082
H	-1.6456519628	 0.877423466	 2.8291049718	 0.116075
H	-1.8982655087	-0.8199145087	 2.3542886652	 0.115923
H	-0.9459305999	 0.1430256819	 5.0880434074	 0.118457
H	-1.2239293661	-1.5482854896	 4.6228553831	 0.118362
H	 1.1042157984	-1.693893469	 3.7418183306	 0.122238
H	 1.3911308474	-0.0115751482	 4.2349444274	 0.121881
