21
gdb 116963	7.47202	0.45128	0.43818	1.3357	89.01	-0.2417	0.0568	0.2985	2490.452	0.18101	-387.045997	-387.035419	-387.034475	-387.084211	36.925	
O	-0.1204846727	 1.4131754337	-0.1653524261	-0.415868
C	 0.0114642374	 0.0105862144	-0.0048213903	-0.062286
C	-1.3897275578	-0.5918709932	-0.1544189204	-0.322531
C	-1.3929940622	-2.0423861076	-0.0111039194	 0.043242
C	-1.364604913	-3.2406410324	 0.1089489186	 0.081177
C	-1.3717541092	-4.6945060366	 0.2590085407	-0.377196
C	-2.7682817587	-5.297053822	 0.1898762068	 0.048632
C	-3.3809103579	-5.6354351696	-1.1419288539	-0.245881
C	-2.943055187	-6.7393103812	-0.2081114425	-0.278789
H	 0.7501878582	 1.8104722656	-0.0745064361	 0.288114
H	 0.6790665494	-0.4255618837	-0.7628867748	 0.096368
H	 0.417284126	-0.2502675797	 0.9840244817	 0.096395
H	-2.0447261092	-0.1287725896	 0.5939187363	 0.133581
H	-1.7869227833	-0.2997371198	-1.1343674545	 0.13385
H	-0.747340139	-5.1496236878	-0.5220231261	 0.119164
H	-0.9021300155	-4.9669532375	 1.2142115472	 0.124851
H	-3.4468632877	-4.9171359519	 0.947806305	 0.091438
H	-4.44285364	-5.4668877856	-1.2809863977	 0.112009
H	-2.7847176533	-5.457854551	-2.0311264879	 0.113099
H	-2.0549007673	-7.3044278993	-0.4731428376	 0.109135
H	-3.7046052371	-7.3252059953	 0.2945465909	 0.111498
