17
gdb 46934	2.75505	2.03139	1.51817	4.5408	72.75	-0.2382	0.033	0.2712	897.3469	0.138885	-417.975066	-417.968337	-417.967392	-418.006372	26.879	
N	 0.0617263693	 0.908124787	 0.7833098522	-0.517278
C	 0.0145889815	-0.0516307413	-0.0392217905	 0.405822
O	 1.0624224337	-0.365618528	-0.8600989431	-0.263049
C	 1.2818032695	-1.7268793604	-1.2682643124	-0.077952
C	 0.1873730181	-2.6648434741	-0.7948084514	-0.075873
C	-0.0846090539	-2.7584792188	 0.7520210807	-0.267662
C	-1.4121131801	-2.0198956155	 0.5288534911	-0.0367
C	-1.1962298391	-2.0192626431	-0.9576766152	-0.055623
N	-1.1818053462	-0.7812571578	-0.2057706201	-0.104562
H	 1.0006984021	 1.3069796222	 0.7821859732	 0.220159
H	 1.3386288703	-1.7283263714	-2.3633032464	 0.118101
H	 2.2624404425	-2.025610985	-0.877651957	 0.115402
H	 0.3024738643	-3.6435731295	-1.2637915091	 0.090689
H	-0.227660602	-3.7935102862	 1.068963104	 0.112494
H	 0.6286065307	-2.2737309329	 1.4256593834	 0.121056
H	-2.3234581403	-2.1095774976	 1.1064528178	 0.110279
H	-1.8921937904	-2.1213007876	-1.7822470271	 0.104694
