22
gdb 22847	2.71864	1.21047	0.92446	0.8714	85.11	-0.2364	0.0172	0.2536	1319.7738	0.196199	-404.329909	-404.320943	-404.319998	-404.363817	34.69	
O	-0.002477202	 1.4063762265	-0.0118956644	-0.403677
N	 0.0906418908	 0.0009214727	-0.0151579943	-0.177245
C	-1.0518584698	-0.5750020666	 0.0271046382	 0.366533
C	-2.380480099	 0.140133142	 0.0442403337	-0.293059
C	-3.050141401	 0.101459376	-1.3511587093	-0.191111
C	-3.8496248598	-1.1791393679	-1.6729596422	-0.184925
C	-3.3196485823	-2.5061581263	-1.0908285612	-0.186376
C	-1.798241041	-2.7276394127	-1.1580119627	-0.193737
C	-1.014762082	-2.0807312889	 0.0045157342	-0.267481
H	 0.9251674509	 1.6629185915	-0.0104824256	 0.303216
H	-3.0386921332	-0.3225918169	 0.7894433719	 0.098629
H	-2.2183372225	 1.1753404659	 0.3445254482	 0.12972
H	-3.723305829	 0.9606217481	-1.4436011929	 0.0979
H	-2.2690551591	 0.2552318721	-2.1035873491	 0.111114
H	-4.8815155729	-1.0550858797	-1.3219805998	 0.095477
H	-3.9173383672	-1.2701402206	-2.763982501	 0.097271
H	-3.6330777919	-2.5992596991	-0.0424903199	 0.093465
H	-3.8262529695	-3.3224624874	-1.6184823392	 0.093603
H	-1.5973065471	-3.804460658	-1.1223510355	 0.097281
H	-1.3995061166	-2.3745938958	-2.1176152068	 0.10093
H	 0.0331446294	-2.3907284294	-0.0296914878	 0.111376
H	-1.4352446051	-2.4593079354	 0.9480630453	 0.101094
