21
gdb 78544	2.4214	1.56159	1.25879	2.2265	83.98	-0.1941	0.0721	0.2662	1134.5025	0.180428	-383.169343	-383.160047	-383.159102	-383.202628	35.89	
C	-0.2648718631	 1.5453382304	-0.025215364	-0.290698
N	 0.1425034208	 0.1445706927	 0.0865995132	-0.112867
C	 1.3643141993	-0.5019405185	-0.297063604	-0.166317
C	 2.6987492307	 0.175623439	 0.2051011246	 0.334684
C	 4.0529131204	-0.1217092376	-0.3540781443	-0.510295
N	 2.3415489682	 1.4635674775	 0.8431299266	-0.380394
C	 2.182379332	 0.182399291	 1.5875883681	-0.188175
C	 0.8544741908	-0.535319866	 1.1246725893	 0.328734
C	 0.2181565184	-1.6236818681	 1.9378446167	-0.486973
H	 0.3216102323	 2.0680954011	-0.7832188779	 0.12314
H	-1.3230741491	 1.5744928073	-0.3157651657	 0.097104
H	-0.1406901676	 2.0837244773	 0.91625874	 0.124902
H	 1.3527654365	-1.2710368088	-1.0653887932	 0.08505
H	 4.1951385923	 0.3568140677	-1.3309211915	 0.127412
H	 4.8444010413	 0.2350467696	 0.3145751288	 0.115732
H	 4.1929449878	-1.1998566386	-0.4909817159	 0.127286
H	 3.2131746224	 1.8827067243	 1.1706710147	 0.221917
H	 2.7004479608	 0.0046013037	 2.5221514171	 0.086504
H	-0.3018843066	-1.2101218595	 2.8110497454	 0.119116
H	-0.5126016517	-2.1669441356	 1.3334383801	 0.130198
H	 0.9680201641	-2.3333087888	 2.305937362	 0.113939
