27
gdb 103173	1.86746	1.33776	1.21024	0.031	95.02	-0.2692	0.0747	0.3439	1326.3449	0.250792	-353.561018	-353.550124	-353.54918	-353.595914	42.198	
C	 0.3603160051	 1.4232542626	 0.1310337338	-0.398282
C	 0.221410258	-0.106098872	 0.1520013081	-0.232112
C	-1.2153685499	-0.6446332161	 0.1215698572	 0.338487
C	-2.0551453066	-0.0425550101	 1.2554105128	-0.445654
C	-2.0195188541	-0.5889157924	-1.2364218298	 0.000398
C	-1.2539762703	-0.3279423103	-2.5321370488	-0.421116
C	-2.4216179341	-2.0784887192	-1.0283139371	-0.24328
C	-1.3822330243	-2.2137092048	 0.1211759458	-0.007919
C	-0.1671383063	-3.0754600769	-0.2161198694	-0.415709
H	 1.4140183775	 1.7112725767	 0.0595885944	 0.109681
H	-0.161279118	 1.8675299239	-0.722853325	 0.117722
H	-0.0425873215	 1.8829192854	 1.0381343099	 0.117744
H	 0.7878978622	-0.5213452135	-0.6879349162	 0.091343
H	 0.7116754714	-0.489309563	 1.0577480389	 0.088669
H	-2.185838798	 1.0375588364	 1.1352339348	 0.111484
H	-3.0541997327	-0.4905310673	 1.2831474165	 0.108525
H	-1.5857438411	-0.2204191602	 2.2306650486	 0.105243
H	-2.8648131376	 0.1064804953	-1.1888831531	 0.057872
H	-0.404350607	-1.0071775834	-2.656367028	 0.115879
H	-1.9164036998	-0.4807823198	-3.3919871587	 0.111102
H	-0.8720284996	 0.6963816443	-2.5892642524	 0.114641
H	-3.4568606445	-2.216185767	-0.7063992341	 0.093345
H	-2.2472271915	-2.729785961	-1.8908009751	 0.087647
H	-1.8096105527	-2.5793599983	 1.0616012462	 0.057952
H	 0.2873816424	-2.7997541661	-1.1731518204	 0.114705
H	 0.6092609333	-3.0060660242	 0.5531640783	 0.111967
H	-0.4647560306	-4.1275789392	-0.2910923572	 0.109669
