17
gdb 20724	3.32716	1.94569	1.25216	1.8422	71.78	-0.1984	0.0344	0.2328	969.6204	0.142826	-360.073355	-360.064518	-360.063574	-360.106747	31.279	
C	-0.0087480615	 1.4660005444	-0.0198510173	-0.505987
C	 0.0155745528	-0.0274623132	 0.0561653283	 0.313781
N	 0.0132014416	-0.7725743343	-1.0480509205	-0.297895
N	 0.0327536279	-2.0439249751	-0.5990392718	-0.269927
C	 0.0252457439	-2.1453275773	 0.7574453979	 0.359788
C	 0.0190407382	-3.437050513	 1.5012148963	-0.512891
C	 0.0238817411	-0.8410837117	 1.2204000319	-0.000453
N	-0.0122640866	-0.4526410039	 2.5846479541	-0.616158
H	 0.8001519694	 1.9122339429	 0.5708636121	 0.116672
H	 0.1069961114	 1.7852246542	-1.0576914604	 0.141723
H	-0.9518814782	 1.8819640886	 0.356253114	 0.123151
H	 0.0432786262	-2.7949463223	-1.2673213702	 0.264003
H	 1.0163926771	-3.8893251904	 1.5724292478	 0.130151
H	-0.3385202207	-3.259390282	 2.5191340511	 0.151894
H	-0.6422720886	-4.17261855	 1.03027815	 0.126523
H	 0.8906832301	-0.5543049532	 3.0369994968	 0.238617
H	-0.2861021641	 0.5182495363	 2.6790418799	 0.237009
