14
gdb 3570	5.39413	2.9941	2.78965	3.0039	55.96	-0.2296	0.0639	0.2935	554.0052	0.115414	-324.485913	-324.480807	-324.479863	-324.51449	20.615	
C	 0.0107034036	 1.5192019132	 0.0886325918	-0.084025
O	 1.4635187893	 1.5167542912	 0.0548873343	-0.287854
C	 1.5010404537	 0.0849197659	-0.0234297814	 0.129191
C	 1.5683482535	-0.7005558674	 1.3158111464	-0.071266
N	 0.7604117483	 0.0462567282	 2.3062589671	-0.319277
C	 0.0762926604	-0.8217320326	 1.327499002	-0.06435
C	-0.0385354505	-0.0249797607	 0.0048021339	-0.091886
H	-0.3755923524	 1.9668162605	 1.0078776462	 0.119156
H	-0.3990441719	 2.0318338982	-0.789749954	 0.094346
H	 2.1336911475	-0.2991613237	-0.8280099273	 0.076977
H	 2.3366473735	-1.3914495794	 1.642167638	 0.090355
H	 0.8182291656	-0.4698096507	 3.1832437587	 0.232799
H	-0.5558706456	-1.6387055825	 1.6527012615	 0.093695
H	-0.606984605	-0.4936346503	-0.7959216572	 0.082139
