18
gdb 73804	2.52352	1.35504	1.01902	4.7845	79.56	-0.2511	0.	0.2511	1209.3944	0.146381	-401.976334	-401.966985	-401.966041	-402.010768	33.203	
C	 0.0776198605	 1.5497397848	-0.0429967141	-0.498472
C	 0.0196719597	 0.056735611	-0.0507306991	 0.182679
C	-1.0367231748	-0.7520898092	 0.0525192928	 0.197789
C	-2.4892525021	-0.444916434	 0.2111948579	-0.506613
C	-0.5452702266	-2.190473993	 0.0036685138	-0.088562
O	 0.847346008	-2.1253877839	-0.242856595	-0.259341
C	 1.2757926521	-0.7644159227	-0.1742993692	-0.157619
C	-0.8249987342	-2.9043262897	 1.2739010826	 0.268099
N	-1.0683621324	-3.4467400327	 2.264851616	-0.329125
H	 0.7079186858	 1.9109664964	 0.7790104431	 0.139195
H	 0.5220038527	 1.9313739112	-0.9704769671	 0.135905
H	-0.9108446124	 2.0002786211	 0.0681974449	 0.13414
H	-3.0742364842	-0.8547530394	-0.6218810021	 0.134419
H	-2.8869420933	-0.8946697774	 1.1287695232	 0.154878
H	-2.6740038181	 0.6305426469	 0.2537795887	 0.133146
H	-1.0274224711	-2.7667101846	-0.8009937299	 0.12823
H	 1.8485778186	-0.5294376875	-1.0828093806	 0.114998
H	 1.9495696019	-0.6193309772	 0.6851444841	 0.116256
