21
gdb 100323	2.07858	1.33217	1.03442	1.3322	74.	-0.2439	0.0542	0.298	1257.0249	0.180968	-461.33694	-461.326823	-461.325879	-461.371806	38.085	
O	-0.0028845935	 1.2881365027	 0.4770461151	-0.436929
C	-0.0425476078	-0.0993742187	 0.1366786942	-0.114786
C	-1.4938237023	-0.5684854129	-0.0752465936	 0.290927
O	-2.2920846599	-0.0850272061	 0.9976180739	-0.472118
C	-2.0748591699	 0.0146284711	-1.3821285137	-0.11674
O	-1.3525894385	-0.3633392204	-2.5466841765	-0.422977
C	-1.5503438847	-2.0868375009	-0.0929573914	-0.015903
C	-1.6131008127	-2.8722712164	 1.1908225656	-0.272165
C	-2.8165699858	-2.8161464239	 0.2829022043	-0.279809
H	-0.0572609759	 1.7990300611	-0.3365927063	 0.295745
H	 0.5583181392	-0.3133515356	-0.7540962572	 0.111858
H	 0.3852975167	-0.6305295348	 0.9912703903	 0.117016
H	-1.8926230782	 0.7601464602	 1.24804826	 0.287813
H	-3.1347726724	-0.263385397	-1.4438413968	 0.104951
H	-2.0315182582	 1.1093242028	-1.3368597595	 0.089092
H	-1.5872959757	-1.2720958497	-2.7563085815	 0.290725
H	-0.9565679869	-2.525680178	-0.89069075	 0.074837
H	-1.0514944906	-3.7975781638	 1.2549213651	 0.105518
H	-1.6706680332	-2.3027044763	 2.1104666966	 0.127532
H	-3.6533205294	-2.2140307799	 0.6168226977	 0.131909
H	-3.0863554102	-3.7036953732	-0.2789474564	 0.103504
