19
gdb 64715	3.73293	1.09182	1.02	3.7557	78.63	-0.2468	0.0261	0.2729	1215.6861	0.159438	-382.041063	-382.032516	-382.031572	-382.074222	32.548	
C	-0.0262181989	 1.6395614348	 0.1159618567	-0.468015
C	 0.0351104599	 0.1164329056	 0.048757285	 0.311076
C	-1.3681440653	-0.4900092091	-0.1786773329	-0.397736
C	-1.958711286	-0.0895029264	-1.4548593778	 0.268271
N	-2.4027610663	 0.2354782635	-2.4712024137	-0.312103
C	 1.0943214419	-0.5534205769	-0.8798705992	-0.21662
N	 1.6474913824	-1.3926325144	 0.2436380764	-0.12456
C	 2.1902606069	-0.4254857756	 1.21317801	-0.255053
C	 0.7309586753	-0.6340363011	 1.1932063604	-0.072767
H	 0.9631578545	 2.0705501739	 0.28842904	 0.121173
H	-0.4151936119	 2.0568540743	-0.818627263	 0.145663
H	-0.682083336	 1.9704433783	 0.9295479897	 0.119738
H	-1.3101215991	-1.5839669176	-0.1513364576	 0.161814
H	-2.0439145022	-0.1853183758	 0.6299021328	 0.148246
H	 0.6704401111	-1.1845518901	-1.6634743535	 0.124436
H	 1.8353075262	 0.1163222504	-1.3280516872	 0.109609
H	 2.7446048825	-0.8976712661	 2.0185753946	 0.127747
H	 2.626178032	 0.5017590763	 0.8482718181	 0.114956
H	 0.209540583	-1.138217294	 2.0030058811	 0.094124
