21
gdb 64585	3.44813	1.11438	1.09819	3.3915	83.49	-0.2434	-0.0116	0.2318	1219.9215	0.18303	-387.111269	-387.102284	-387.10134	-387.145626	33.416	
C	-0.0013994705	 1.5913938184	 0.1005952374	-0.47787
C	 0.0463494343	 0.0784438422	 0.0852118828	 0.216399
C	-1.2320747087	-0.5514992842	-0.3412290321	 0.129329
O	-2.2300352469	 0.0518623719	-0.6518545917	-0.277252
C	 1.2675223292	-0.7568166181	-0.3232749653	-0.085297
C	 2.6345830327	-0.0878394778	-0.3927085065	-0.232579
C	 2.9163698889	 0.4908049918	 1.0222689903	-0.220307
C	 1.8663270607	-0.1363077847	 1.9817011147	-0.232551
C	 0.8069305197	-0.7858473946	 1.1002429664	-0.0853
H	 0.93783366	 2.0460844364	 0.4120619636	 0.115667
H	-0.2513295075	 1.969602062	-0.895086958	 0.132941
H	-0.7894031482	 1.9357820563	 0.7768774602	 0.132873
H	-1.210818499	-1.6677150994	-0.3570502219	 0.060319
H	 1.0834366833	-1.5932752482	-0.9902877743	 0.088213
H	 3.3751431812	-0.8516121366	-0.6531563397	 0.10718
H	 2.6930290375	 0.6818626188	-1.1692128886	 0.108218
H	 3.9350405861	 0.2626796297	 1.3472074327	 0.102353
H	 2.8383296763	 1.5802772807	 1.0192797241	 0.114052
H	 2.3231899421	-0.9179934087	 2.5980265068	 0.107178
H	 1.4498159773	 0.6034243693	 2.6731694561	 0.108219
H	 0.2771034714	-1.6440917353	 1.5016890629	 0.088214
