18
gdb 22867	2.84071	1.25534	0.90907	2.2496	75.28	-0.2403	-0.0285	0.2118	1250.7744	0.145986	-439.084501	-439.075329	-439.074385	-439.119383	33.363	
C	-0.4110525538	 1.5007507909	 0.0725341737	-0.392362
C	 0.0981599931	 0.0628930635	 0.007580554	-0.187256
C	 1.0603147228	-0.2183687675	-1.1574106461	 0.390643
O	 1.044191827	 0.3440644112	-2.220412659	-0.307543
C	 2.034739799	-1.3254203904	-0.7417436133	-0.33862
C	 1.9863819053	-1.3827153023	 0.7976592464	-0.310431
C	 0.8530604623	-0.4587372677	 1.20669523	 0.377799
N	 0.5497179816	-0.0948219988	 2.3872718721	-0.213611
O	 1.39463932	-0.6979097384	 3.3363129402	-0.393333
H	 0.4095199568	 2.1905232789	 0.2887412744	 0.124831
H	-0.84915679	 1.7806922807	-0.8883489574	 0.133351
H	-1.1599952494	 1.609576782	 0.8593446447	 0.131599
H	-0.7573739845	-0.6110019325	-0.1752002168	 0.124693
H	 1.6917751799	-2.2606116008	-1.1997664149	 0.13738
H	 3.0259158183	-1.1211260706	-1.1524830435	 0.138121
H	 1.8158208283	-2.3916068406	 1.1862110094	 0.134979
H	 2.91545104	-1.0378242499	 1.2620600657	 0.141545
H	 1.0731058133	-0.3214579877	 4.1623189504	 0.308213
