19
gdb 40748	3.87704	1.13731	1.0162	1.7106	75.6	-0.2272	0.0694	0.2966	1214.2596	0.161233	-419.119841	-419.112069	-419.111125	-419.152741	29.851	
C	 0.0080040868	 1.475795177	-0.0322172299	-0.245233
N	 1.1631362866	 0.5683124053	-0.1374463717	-0.323834
C	-0.1899820128	 0.0065335849	 0.0270686739	 0.0103
C	-0.4386572064	-0.7083641346	 1.3232523169	 0.015005
N	-1.881107237	-0.8904131725	 1.6847581625	-0.341423
C	-1.6765585788	-2.3353573349	 1.9568850255	-0.055063
C	-1.9985752754	-3.1893230706	 0.7213416964	-0.060227
O	-0.6836753655	-2.925381475	 0.1607177109	-0.296552
C	-0.253163272	-2.2473126829	 1.3583374799	 0.087028
H	-0.0226071388	 2.0672318044	 0.8795629876	 0.11075
H	-0.332417402	 2.0018896337	-0.9201722793	 0.111753
H	 1.4554058314	 0.4871480789	-1.1072931648	 0.233925
H	-0.65339914	-0.4676620955	-0.833690031	 0.096395
H	 0.1574152224	-0.2377283402	 2.1168149563	 0.072421
H	-2.1707532555	-0.3541113431	 2.4934545765	 0.219795
H	-1.9381435837	-2.7032390522	 2.9495810104	 0.077042
H	-2.1309518515	-4.2615162694	 0.9169458571	 0.09644
H	-2.8085912692	-2.8140893274	 0.0879897495	 0.109102
H	 0.6728080612	-2.6576800957	 1.7654419434	 0.082376
