15
gdb 30233	3.71735	1.30984	1.01981	4.8623	68.76	-0.1919	0.0219	0.2138	1103.1314	0.113979	-453.953143	-453.945299	-453.944355	-453.98608	28.856	
O	-0.2095527519	 1.544673272	-0.0169437925	-0.405642
C	 0.0422443447	 0.1630025165	-0.0521180904	-0.071386
C	-1.2908934499	-0.656911623	 0.1261197681	-0.174424
N	-1.0589266496	-1.1885636429	-1.2253762097	-0.114366
C	 0.1428774534	-0.5272732659	-1.4135737807	 0.305585
C	 0.7206176386	-0.9965479086	-2.5378629176	-0.259765
N	-0.1736595824	-1.9658355319	-3.0194930458	-0.35298
C	-1.2930041182	-2.1574608137	-2.1864549504	 0.438202
O	-2.1992318919	-2.9526270196	-2.3215072969	-0.433143
H	 0.6014901065	 2.008587851	-0.2488826994	 0.290732
H	 0.8345419066	-0.1228386164	 0.6511734139	 0.094812
H	-1.2762035357	-1.4145132912	 0.9129142594	 0.13477
H	-2.1776407306	-0.0259601093	 0.2123666248	 0.142348
H	 1.6454712363	-0.7718615701	-3.0400462954	 0.137841
H	-0.0778780859	-2.4816150369	-3.8766361374	 0.267414
