19
gdb 85266	2.55619	1.55285	1.18911	2.014	76.02	-0.2149	-0.0306	0.1843	1094.5533	0.160177	-419.192284	-419.1839	-419.182956	-419.225346	31.806	
C	-0.3287033062	 1.2055106038	 0.8917184581	-0.331261
N	 0.0250138718	 0.1402621556	-0.0441081077	-0.072631
C	-1.1241314108	-0.7027861283	-0.3983917438	-0.294496
C	-1.0910510091	-1.9057897115	 0.5513987393	 0.339654
O	-1.9347685888	-2.7549827784	 0.7120483442	-0.336855
C	 0.2537493287	-1.8710900464	 1.2202083877	 0.252968
C	 0.3177157039	-2.2163949858	 2.6731631204	-0.271137
N	 0.8483609398	-3.1323946878	 1.6677763634	-0.356299
C	 1.0417174359	-0.7858627405	 0.5015156831	-0.282878
H	 0.5615156278	 1.8016902648	 1.1123622133	 0.125504
H	-1.0645634013	 1.8671504602	 0.4251362027	 0.125746
H	-0.7491178425	 0.8523079818	 1.8509054143	 0.099634
H	-2.0719324297	-0.1630252139	-0.3410930539	 0.133591
H	-1.0250019495	-1.0827040165	-1.4261316789	 0.13442
H	 1.0626389836	-1.7215719787	 3.2908167987	 0.125942
H	-0.6161914237	-2.4704200272	 3.1681519114	 0.13211
H	 0.164177513	-3.8731632232	 1.503930687	 0.245597
H	 1.6158265551	-1.2293970672	-0.3221808341	 0.116836
H	 1.7415994322	-0.249318301	 1.1449687948	 0.113556
