18
gdb 91248	2.62801	1.60742	1.46048	3.8816	72.06	-0.2543	0.0338	0.2881	984.9703	0.149321	-439.098338	-439.090685	-439.089741	-439.130365	30.054	
O	-0.5146505816	 1.1350366182	 0.9369665973	-0.422106
C	-0.0656737327	 0.0855626367	 0.0897755089	 0.111186
C	 0.8979147161	-0.8882343447	 0.8059770045	-0.269937
C	 0.0026721484	-1.8585681455	 1.5687512235	 0.124651
O	-0.5508568689	-1.2927749067	 2.8031264873	-0.277678
C	-1.8234499242	-1.2511138763	 2.2617529887	 0.459075
N	-2.9155793588	-0.9091350479	 2.7700789037	-0.554425
C	-1.4010290812	-1.7948235269	 0.9096313342	-0.167765
C	-1.2961613686	-0.7784019041	-0.2411325485	-0.225086
H	 0.2489387976	 1.5245452572	 1.3737796967	 0.283309
H	 0.3917689689	 0.5018158474	-0.8194498895	 0.067615
H	 1.4743427046	-1.4496915601	 0.0605196555	 0.107896
H	 1.6153186334	-0.3787094926	 1.4578567043	 0.107493
H	 0.4505950627	-2.8326320277	 1.7735702407	 0.089454
H	-2.7949304482	-0.5948446439	 3.7344532547	 0.224988
H	-1.886426312	-2.7303891235	 0.6320026407	 0.1008
H	-2.1908378269	-0.1609871636	-0.3434113929	 0.138665
H	-1.1352133986	-1.309363486	-1.1851996697	 0.101866
