17
gdb 72975	2.72172	1.5033	1.21148	2.545	76.08	-0.2281	0.0237	0.2518	1065.6619	0.132639	-421.742851	-421.73392	-421.732976	-421.775802	34.082	
C	-0.137121125	 1.5262602453	 0.0574939382	-0.495672
C	 0.034424209	 0.0440745507	 0.1003046234	 0.42305
O	-1.1320224109	-0.7529805421	-0.0766731794	-0.314119
C	-0.6406447325	-1.7316323799	 0.8759576036	-0.107063
C	 0.6602790218	-0.963676317	 1.0579375527	-0.270508
C	 1.2625415746	-0.7366567885	-0.3348887892	 0.155905
O	 1.1103712646	-1.6880877449	-1.3479306799	-0.451571
C	 2.5148761679	-0.0244425463	-0.3390676442	 0.271997
C	 3.5812389824	 0.5335872062	-0.3517531307	-0.436493
H	 0.8224351375	 2.0294761811	 0.1921265969	 0.140457
H	-0.5488687658	 1.821757731	-0.9138118996	 0.140682
H	-0.8299292947	 1.8572864805	 0.8367442241	 0.128621
H	-1.2705124222	-1.7444516607	 1.771511799	 0.111456
H	-0.5748146322	-2.7333012847	 0.4402596957	 0.111265
H	 1.2314002131	-0.8404764857	 1.9685115115	 0.109126
H	 1.8159534836	-2.3374347943	-1.2466185749	 0.286906
H	 4.5164544588	 1.0363868495	-0.3745803272	 0.195962
