19
gdb 124444	3.11326	1.21181	1.08056	3.6161	76.62	-0.2672	-0.036	0.2312	1194.7925	0.157434	-419.199565	-419.190543	-419.189599	-419.233188	33.991	
C	-0.2526138989	 1.512173953	-0.119209377	-0.405061
C	 0.0167754239	-0.0021667816	 0.0178903632	 0.136392
C	 0.8499473527	-0.2707211834	 1.2827010774	-0.419691
C	-1.3269435248	-0.7579164542	 0.1064873463	-0.405055
C	 0.7678685339	-0.4785519708	-1.1981938296	 0.284319
C	 1.9820901541	-1.0690402054	-1.356799467	-0.080185
O	 2.2001430796	-1.3004043329	-2.651289352	-0.168141
N	 1.0429149659	-0.8214149292	-3.3369019879	-0.005786
N	 0.2517238811	-0.3615836275	-2.4772562242	-0.185924
H	 0.6841700086	 2.076803441	-0.1623535773	 0.115319
H	-0.8186694365	 1.7256081405	-1.02975964	 0.137951
H	-0.8297774502	 1.8734285771	 0.7382113394	 0.112388
H	 0.3082304887	 0.0736760377	 2.1687347734	 0.120301
H	 1.0514974764	-1.3395824377	 1.4110079188	 0.115807
H	 1.8080055601	 0.2591284234	 1.2521238447	 0.115808
H	-1.9206556605	-0.6029916416	-0.7982663557	 0.137954
H	-1.1666804952	-1.8340858335	 0.2265244603	 0.115315
H	-1.906316512	-0.4012633993	 0.9643431196	 0.112379
H	 2.756936183	-1.3675591155	-0.6712976923	 0.165911
