18
gdb 23356	3.27081	1.18443	0.97409	1.1919	74.54	-0.2367	0.0064	0.2432	1225.0051	0.14553	-438.996567	-438.987639	-438.986695	-439.031203	32.783	
C	 0.4524163097	 1.3793072545	 0.008133195	-0.489766
C	 0.0874700515	-0.0716990501	 0.1470255543	 0.331967
N	-0.250049703	-0.6647681924	 1.2262613667	-0.164928
O	-0.2825925001	 0.2075208612	 2.3236189623	-0.393815
C	 0.074262299	-0.9118159862	-1.1021731442	 0.059499
O	 1.3188679089	-0.8141165399	-1.8677155231	-0.309062
C	 1.3885345782	-2.2445411918	-1.9354015676	 0.103154
C	 1.5587160459	-2.8341342554	-0.5735848905	-0.287932
C	 0.178689525	-2.4321875992	-1.0504082268	-0.131524
H	 1.1579002928	 1.5074230812	-0.8157401229	 0.150837
H	-0.4386703304	 1.9812651681	-0.2088179546	 0.138402
H	 0.8882911656	 1.756513753	 0.9340758208	 0.151291
H	-0.500951541	-0.3889546774	 3.0474417153	 0.306463
H	-0.7507271948	-0.5844086287	-1.7518761644	 0.093489
H	 1.693657123	-2.6889180229	-2.8752361772	 0.104316
H	 1.7207017525	-3.9074388716	-0.5480932842	 0.11324
H	 2.0646821202	-2.2689895397	 0.2021120855	 0.122637
H	-0.6527672831	-3.1186053328	-1.1173259146	 0.101732
