15
gdb 11323	4.23273	1.54719	1.16112	2.4306	65.02	-0.262	-0.0087	0.2533	996.9918	0.11879	-399.858087	-399.850395	-399.849451	-399.891018	26.89	
C	-0.0070545682	 1.4363509566	 0.0097126157	-0.339334
N	-0.0518625874	-0.0151345451	-0.0545470364	-0.300991
C	 0.4774578289	-0.6350018142	-1.0037315709	 0.428489
C	 0.4875095811	-2.136762969	-1.2011325813	-0.320896
C	 1.5105069967	-2.3510281571	-2.3212368673	-0.361558
C	 1.740780656	-0.9606500205	-2.8949843433	 0.422376
O	 2.3346009322	-0.6391974598	-3.876475787	-0.31062
O	 1.1484656262	-0.0290296691	-2.0682904085	-0.218913
H	 0.5710779407	 1.9073121206	-0.7919537449	 0.133962
H	-1.0323268886	 1.8214675536	-0.01929977	 0.134316
H	 0.4139542939	 1.7312864464	 0.9766543179	 0.132763
H	 0.7293207136	-2.6418404556	-0.2654991739	 0.14719
H	-0.5135875327	-2.4638908994	-1.4984339326	 0.146875
H	 2.4720025463	-2.7216389977	-1.95173949	 0.154997
H	 1.1886921013	-3.0262160198	-3.1155478276	 0.151344
