15
gdb 22468	3.11177	0.94356	0.77684	3.3806	74.47	-0.2479	-0.0452	0.2027	1405.0579	0.110126	-453.888135	-453.878556	-453.877612	-453.923829	33.386	
O	-0.4767114869	 1.6990566152	-0.2874113705	-0.377951
N	-0.0377825127	 0.5030317163	-0.8275194011	-0.154837
C	-0.70292582	-0.5120691296	-0.3988359026	 0.144276
C	-0.2869722477	-1.8584187162	-0.953133535	-0.25021
N	 0.1936632091	-2.7556338793	 0.0826900388	-0.272922
C	-0.4117148943	-3.9417013923	 0.3720766985	 0.162841
O	-1.3720061034	-4.3968782171	-0.209283302	-0.316069
C	-1.7675924579	-0.4543528253	 0.542758188	 0.37772
C	-2.6752458624	-0.4568114659	 1.3331459571	-0.468175
H	 0.1037976943	 2.3439931232	-0.7077556395	 0.313682
H	-1.1399886782	-2.3630159716	-1.4144749479	 0.163857
H	 0.4796028038	-1.6858708997	-1.7146384063	 0.133158
H	 0.977498435	-2.4662129189	 0.646291497	 0.25343
H	 0.0902170561	-4.4601460245	 1.2123944669	 0.078943
H	-3.4781753148	-0.4513682443	 2.0288962386	 0.212256
