18
gdb 94954	3.54852	1.3705	1.17755	3.2174	72.41	-0.2597	0.0126	0.2723	1080.8536	0.148966	-439.090172	-439.082415	-439.08147	-439.122527	29.766	
C	-0.0607215802	 1.4271025579	-0.1458973817	-0.40746
C	-0.00402439	-0.0875916642	 0.0862986129	-0.023074
C	 0.8231641173	-0.814389503	-0.9994595759	-0.109178
O	 2.1868281528	-0.6954722495	-0.5805416399	-0.252149
C	 2.1971951477	-0.8277407877	 0.8177079186	-0.013626
C	 0.7948568283	-0.4215910104	 1.3448471964	 0.080514
O	 0.5789998994	-1.7892541988	 1.8276253802	-0.274762
C	 1.8250285561	-2.2018503205	 1.386780652	 0.401365
N	 2.3894848052	-3.3165413728	 1.459984287	-0.544741
H	 0.9462013041	 1.8444964908	-0.249521305	 0.134751
H	-0.6128484987	 1.6576369618	-1.0617453116	 0.123549
H	-0.5573174742	 1.9394183549	 0.6841341832	 0.120304
H	-1.0134932976	-0.5027530415	 0.1582192902	 0.095717
H	 0.5365309659	-1.872546045	-1.0701540863	 0.11391
H	 0.7429651766	-0.3610494532	-1.989813831	 0.115194
H	 3.1015334316	-0.3711281694	 1.2188779083	 0.115087
H	 0.7036741702	 0.2932172523	 2.1633890527	 0.094862
H	 1.7951282053	-4.0090469918	 1.9204952598	 0.229736
