19
gdb 114852	3.16028	1.35749	1.29208	2.78	69.97	-0.2473	0.0834	0.3306	1058.0121	0.161697	-460.156943	-460.1495	-460.148556	-460.188872	29.713	
O	 0.0089409424	 1.4471640425	-0.0622208906	-0.425418
C	 0.0720393895	 0.0487134545	 0.1502219454	-0.079826
C	-1.3173964231	-0.5703089105	 0.0800320643	 0.107917
O	-1.9256622046	-0.208138529	-1.1942218049	-0.316587
C	-2.3141113848	-1.4454039539	-1.8139846538	 0.07817
C	-1.0348158688	-2.1848878747	-2.2216832684	-0.084114
O	-0.4821225405	-2.5922105299	-0.9503037992	-0.27922
C	-1.3962593151	-2.1064627535	 0.045410368	 0.051948
C	-2.767595403	-2.2993690127	-0.6207121377	-0.243492
H	-0.489182622	 1.5648291285	-0.8799672196	 0.289311
H	 0.7319001033	-0.4481418752	-0.5734825893	 0.102022
H	 0.4948527549	-0.102951585	 1.149781645	 0.103303
H	-1.9371439663	-0.1564069313	 0.8876648531	 0.082661
H	-3.023491901	-1.2365540007	-2.613852241	 0.087818
H	-1.2262988142	-3.0691698142	-2.8430991919	 0.102515
H	-0.3358685586	-1.5211481343	-2.7413657283	 0.108763
H	-1.1939774097	-2.6139862579	 0.9878604738	 0.088303
H	-3.6016314801	-1.8550515334	-0.0753847627	 0.113994
H	-2.9738323883	-3.3428453393	-0.8655527723	 0.111932
