21
gdb 87575	2.48955	1.42946	1.18746	1.6778	82.42	-0.2442	0.0821	0.3263	1169.4455	0.181121	-387.050005	-387.04104	-387.040096	-387.083335	34.542	
C	 0.0879732584	 1.6105449623	-0.0760291897	-0.414947
C	-0.0530310261	 0.1206537277	 0.0945770331	-0.02825
O	 1.1421566119	-0.6706838322	-0.0827593525	-0.312702
C	 0.5573708523	-0.6147943599	 1.2067654475	 0.439757
C	 1.3048745965	-0.1090731953	 2.4240427338	-0.150088
C	 0.330386388	 0.0183296707	 3.5676799658	-0.287233
C	 0.8413945766	-1.3458998969	 3.2027782004	-0.065191
C	 0.1302130369	-1.9032055106	 1.9506718398	-0.074264
C	-1.3360788124	-2.3089643735	 2.0285831512	-0.415235
H	 0.9543171349	 1.9858817225	 0.4743295529	 0.126378
H	 0.2118687906	 1.8698272737	-1.1327693614	 0.127516
H	-0.8075275788	 2.1229893557	 0.292500198	 0.119358
H	-0.9309114715	-0.3217598736	-0.380779196	 0.083805
H	 2.2733735464	 0.3742752419	 2.4123592451	 0.097189
H	 0.7401764906	 0.4389583737	 4.4805309422	 0.114223
H	-0.7020225914	 0.301312324	 3.3786174346	 0.108722
H	 1.4100908237	-1.9439915352	 3.9040648629	 0.088145
H	 0.7237547488	-2.7221332597	 1.5293659439	 0.092461
H	-1.9571156884	-1.5117601775	 2.4489330716	 0.114121
H	-1.7289999637	-2.55090813	 1.0350756628	 0.119539
H	-1.4617197432	-3.196469428	 2.6581978039	 0.116695
