16
gdb 7971	3.91636	1.69647	1.2026	5.6511	70.18	-0.2143	0.0003	0.2146	971.4451	0.131535	-379.975008	-379.966996	-379.966052	-380.007485	29.223	
C	-0.0724258071	 1.3869624517	 0.0582964957	-0.339349
N	-0.013335456	-0.0497216192	 0.0582898274	-0.098971
C	-1.1668019817	-0.9084559741	 0.0845979067	-0.24693
C	-0.5560958905	-2.294272309	 0.0429287953	 0.356676
N	-1.3676426245	-3.3981604063	 0.1201813876	-0.581228
C	 0.7860206624	-2.1975118783	 0.0037320491	-0.357472
C	 1.1747641667	-0.7734965807	 0.0097305481	 0.438737
O	 2.2857162964	-0.2794136235	-0.0251099051	-0.415286
H	 0.9580399153	 1.747527161	 0.0304573134	 0.164699
H	-0.6094064054	 1.7762471921	-0.8177712436	 0.111781
H	-0.5621332897	 1.777280624	 0.9607644751	 0.113444
H	-1.7731514787	-0.7726728158	 0.9935583222	 0.124217
H	-1.8332847015	-0.7389714404	-0.7773401334	 0.111144
H	-2.3106410691	-3.2966419043	-0.2230314929	 0.255202
H	-0.9494743854	-4.2827848018	-0.1245130929	 0.261105
H	 1.5121778386	-2.9958461354	-0.0281936527	 0.10223
