19
gdb 41111	3.40403	1.89793	1.53009	0.3993	82.99	-0.2112	0.0163	0.2275	911.1162	0.162094	-348.706334	-348.699995	-348.69905	-348.736486	27.888	
C	-0.0232782716	 1.4304978593	 0.2289048244	-0.236328
C	 1.4758514851	 1.5893074786	-0.178232694	-0.336502
C	 1.4352523194	 0.1846007568	-0.7836897485	 0.334544
C	 2.360676988	-0.9862398923	-0.7040852175	-0.214801
C	 1.7966212966	-1.9882326306	-1.3989050169	-0.088761
C	 0.5779427462	-1.491193293	-2.1023867438	-0.096132
C	-0.501618051	-0.6245074195	-1.3364053687	-0.076411
C	 0.6325045857	 0.0024462702	-2.1135714459	-0.124958
C	 0.0423473624	-0.110429636	-0.0370808827	-0.051736
H	-0.2598072525	 1.7054690138	 1.2586718974	 0.099878
H	-0.7158683134	 1.9534292181	-0.4352482939	 0.102631
H	 1.7392097638	 2.4143171003	-0.8471817536	 0.094072
H	 2.1289397431	 1.6359201693	 0.6990098988	 0.101855
H	 3.2061064791	-1.0606863434	-0.030712557	 0.093965
H	 2.1263173317	-3.0194779892	-1.4247294967	 0.094335
H	 0.1730679486	-2.0188623285	-2.9582890462	 0.083082
H	-1.5406160737	-0.7443735836	-1.6259050233	 0.082335
H	 0.6431137949	 0.6459585338	-2.9871252124	 0.079809
H	 0.0129105376	-0.7370729542	 0.8583997905	 0.059123
