23
gdb 99771	2.01155	1.29476	0.84955	3.2572	81.59	-0.2505	0.0732	0.3237	1419.1364	0.204018	-425.403886	-425.393441	-425.392497	-425.439537	38.606	
C	 0.208067694	 1.5397203835	-0.1115334917	-0.400978
C	 0.0832282881	 0.0157305391	 0.0400744059	 0.021522
C	 0.8893256318	-0.6763818178	-1.0724151267	-0.392316
C	 0.5114472335	-0.476478163	 1.4462633148	-0.040963
C	-0.3454322482	 0.106281333	 2.5915188476	-0.060497
O	 0.2397990293	-0.0912389946	 3.8616163591	-0.435969
C	 0.4565358143	-1.9946370844	 1.5140453609	 0.082472
C	 1.6464604654	-2.8486184689	 1.6116928066	-0.182278
O	 0.8301423963	-2.6117063496	 2.7629074854	-0.259184
H	 1.237952621	 1.8672789247	 0.073224463	 0.11715
H	-0.0565440778	 1.8421393304	-1.1299014996	 0.112478
H	-0.4450281402	 2.0887581043	 0.5704134644	 0.122708
H	-0.9753608801	-0.2523277101	-0.0967421321	 0.075123
H	 1.9590849559	-0.4577885862	-0.9705963725	 0.114171
H	 0.7693295028	-1.7631085984	-1.0620392243	 0.114448
H	 0.5715449011	-0.3180344698	-2.0566344588	 0.113639
H	 1.5454643798	-0.1547875696	 1.6322006098	 0.07814
H	-0.4540448324	 1.1876591729	 2.4754056195	 0.102828
H	-1.3607834849	-0.3266805178	 2.5371079125	 0.078357
H	 0.5101057192	-1.0173832721	 3.9069685797	 0.295675
H	-0.4446103503	-2.4385577406	 1.0854993229	 0.100192
H	 1.6204548065	-3.8700588756	 1.2360728358	 0.120837
H	 2.6318768947	-2.3863790192	 1.6366952079	 0.122445
