17
gdb 22987	2.63655	1.21694	0.93106	2.5014	72.73	-0.2431	-0.0239	0.2192	1259.3687	0.133344	-455.089862	-455.080368	-455.079424	-455.125642	33.427	
C	 0.1939004037	 1.4929191468	-0.0244571937	-0.493171
C	-0.0121499814	 0.0087221508	 0.0700512873	 0.398297
N	-0.0719402236	-0.6898749158	 1.1370393421	-0.155788
O	 0.0469601789	 0.0785641021	 2.2993035824	-0.397916
C	-0.136165976	-0.7536995028	-1.2264931353	-0.222618
N	 1.122240611	-0.7185672461	-2.0449671143	-0.324832
C	 1.2646499547	-2.2041505625	-2.0306134103	-0.284066
C	-0.0148250046	-2.2969865959	-1.1843496613	 0.410262
O	-0.6865697929	-3.1880302022	-0.769459915	-0.27727
H	 0.9823731414	 1.7013171617	-0.7543538625	 0.146538
H	-0.7216944	 1.9835531543	-0.3773436549	 0.132275
H	 0.4669787118	 1.916985396	 0.9405136561	 0.157668
H	-0.0111111914	-0.591980124	 2.9881876023	 0.309283
H	-1.0325119209	-0.4188445944	-1.7698632042	 0.104098
H	 0.9610841535	-0.3608111159	-2.9790973283	 0.227804
H	 1.1813896517	-2.7070738686	-3.0016799878	 0.128008
H	 2.1788706043	-2.5497230434	-1.5353367826	 0.14143
