22
gdb 103563	2.47683	1.23119	1.08372	3.9742	83.38	-0.2365	0.0415	0.278	1267.1941	0.19244	-404.387033	-404.376715	-404.375771	-404.42215	37.724	
C	 0.1383408063	 1.5756152774	-0.0503550499	-0.400337
C	-0.005195515	 0.0494220451	-0.0832001443	-0.21616
C	-1.439962211	-0.4964534227	-0.0178610169	 0.321662
C	-2.3447050524	 0.0463194447	-1.1245360514	-0.445838
C	-1.5036893695	-2.050821948	 0.1540969508	-0.449571
C	-2.1810966198	-1.7706226641	 1.5092005314	 0.415736
O	-2.6583211147	-2.424373809	 2.4025888537	-0.383588
N	-2.0645300759	-0.4165540001	 1.3307166714	-0.086859
C	-2.598072522	 0.6620914386	 2.1243951664	-0.353604
H	 1.1954762507	 1.8575289185	-0.0642817521	 0.120115
H	-0.3371945462	 2.0502791965	-0.9138862168	 0.120905
H	-0.3032492164	 2.006991488	 0.8531207562	 0.122386
H	 0.4546926752	-0.3349083905	-1.0030609896	 0.102736
H	 0.5578317307	-0.3874816463	 0.7500361467	 0.101968
H	-1.9027672975	-0.1409717323	-2.1087017143	 0.12324
H	-3.3255606534	-0.4371485442	-1.0913164783	 0.122413
H	-2.4992206044	 1.1255999096	-1.0309368659	 0.122732
H	-2.1373803366	-2.5745946419	-0.564353827	 0.12433
H	-0.5367893985	-2.5532916454	 0.2252972226	 0.123561
H	-3.1867500765	 0.211474661	 2.9279171146	 0.159964
H	-1.8124455265	 1.2800148157	 2.5745494202	 0.12877
H	-3.2529579365	 1.3113469698	 1.5311514326	 0.125437
