25
gdb 121116	3.42299	0.81033	0.76256	0.9281	90.11	-0.2431	0.0821	0.3252	1683.6253	0.22889	-389.511851	-389.501634	-389.50069	-389.548243	38.005	
C	 0.4917353288	 1.509699625	 0.3808181503	-0.382164
C	 0.2956364173	 0.033164336	 0.0764693068	-0.038043
O	 0.6201137477	-0.7066965089	 1.2350315804	-0.261706
C	 0.4306213487	-2.1131481588	 1.1150901562	 0.146275
C	 1.6130031997	-2.8036244581	 0.3936178141	-0.233148
C	 2.5871745176	-3.1468648485	 1.5273536294	-0.201487
C	 1.656365702	-3.6528932212	 2.6443549608	 0.059748
C	 2.2919246113	-3.7163891212	 4.0319025019	-0.407531
C	 0.436989084	-2.7026339707	 2.5481490688	-0.241372
H	 1.5322710081	 1.71058933	 0.6517095536	 0.124327
H	 0.236593222	 2.1178079071	-0.49234592	 0.11167
H	-0.1434986536	 1.8156424209	 1.2169430655	 0.124719
H	-0.7497375118	-0.1658210283	-0.2166715207	 0.082481
H	 0.9269430654	-0.2649760034	-0.7762793613	 0.084769
H	-0.5207553369	-2.2969575281	 0.5944893626	 0.053991
H	 1.2588663525	-3.7247429421	-0.0863043937	 0.091116
H	 2.0448122853	-2.1746986817	-0.3895021592	 0.094912
H	 3.352382867	-3.8752391522	 1.2423773296	 0.086765
H	 3.1016187596	-2.2364720835	 1.8606614209	 0.101575
H	 1.3287838676	-4.6651657627	 2.3676514235	 0.064797
H	 2.6423522961	-2.725856987	 4.3450256976	 0.11438
H	 1.5785081665	-4.0691585069	 4.7847221637	 0.110093
H	 3.1515095426	-4.3953457308	 4.0465451736	 0.108701
H	 0.5461085833	-1.8643340025	 3.2434155098	 0.112177
H	-0.5019335007	-3.2069244525	 2.7926830955	 0.092953
