21
gdb 116918	4.83223	0.55982	0.52786	1.8219	90.96	-0.2366	0.0426	0.2792	2158.646	0.180377	-387.053847	-387.043253	-387.042309	-387.090928	37.616	
C	-0.0593762365	 1.519961756	 0.0881721094	-0.381724
C	-0.0570534006	-0.0094966148	 0.1181969242	-0.153098
C	-1.4525121023	-0.6033958428	-0.1651942753	-0.339272
C	-1.4722238309	-2.0626397101	-0.1435881738	 0.053046
C	-1.4179161323	-3.2690933479	-0.112607519	 0.078643
C	-1.4590765678	-4.7010190982	-0.0924741269	-0.230624
C	-1.7325890987	-5.4415225704	 1.2196581671	-0.311938
C	-2.81096097	-5.3510747183	 0.1820586882	 0.146389
O	-3.9247271001	-4.5491658248	 0.3971054951	-0.428081
H	 0.9390626803	 1.9194428742	 0.2892169442	 0.116161
H	-0.3786787196	 1.8984332904	-0.889298936	 0.116569
H	-0.7404891749	 1.9319571609	 0.8411492674	 0.116582
H	 0.6500660462	-0.4004723603	-0.6218553019	 0.110019
H	 0.2880550514	-0.3686179644	 1.0940281499	 0.110453
H	-2.1661610332	-0.2179067918	 0.5756797444	 0.126882
H	-1.8087267811	-0.2419352861	-1.139640594	 0.126061
H	-0.8138746331	-5.2021143628	-0.8076958157	 0.111609
H	-1.2232917543	-6.3868052155	 1.3723951855	 0.115838
H	-1.8569652843	-4.8298366612	 2.1053915326	 0.128178
H	-3.046016965	-6.2456756288	-0.3890714867	 0.101507
H	-3.6802371233	-3.6416766333	 0.1682946915	 0.2868
