18
gdb 91981	2.53706	1.61339	1.2145	3.0635	74.54	-0.2488	0.0309	0.2797	1053.9783	0.148287	-401.951409	-401.943248	-401.942304	-401.984442	31.01	
C	 0.5545051907	 1.3934849014	-0.3608992466	-0.403634
C	 0.0326192262	 0.0334960796	 0.0880910252	 0.110953
O	 0.0883124156	-0.9124979132	-0.9863956462	-0.266343
C	 0.9926818583	-1.9433602356	-0.7087103617	 0.107163
C	 2.4384978832	-1.5947679125	-0.4753025589	-0.326279
C	 1.5042755494	-1.8412766326	 0.6951721091	-0.074698
C	 0.7937940239	-0.6328815827	 1.3012178723	-0.210046
C	 1.6832929677	 0.2777733591	 2.0207609891	 0.289654
N	 2.3871535204	 0.9906516572	 2.5974736821	-0.335912
H	 1.621927457	 1.3697304248	-0.5947394306	 0.134201
H	 0.0121244422	 1.7026733372	-1.2580844932	 0.130269
H	 0.3951419743	 2.1440712752	 0.4184955709	 0.135178
H	-1.024652696	 0.1400626604	 0.3577417713	 0.099057
H	 0.7089858751	-2.8788724132	-1.1767822002	 0.109904
H	 3.1794901347	-2.3621393261	-0.6715756721	 0.124239
H	 2.7724875484	-0.5845738079	-0.6817267323	 0.133915
H	 1.6563390698	-2.704746312	 1.3304423768	 0.109979
H	 0.0546140893	-0.9961038292	 2.0229002852	 0.132399
