15
gdb 22212	2.26847	1.29556	0.85061	2.7604	69.84	-0.2711	-0.0633	0.2079	1282.5439	0.109553	-491.066488	-491.05702	-491.056076	-491.101852	32.573	
C	-0.1810536258	 1.3907668275	 0.0718975903	-0.48593
C	-0.1914732207	-0.0711429218	-0.263992318	 0.312342
N	-0.1688395253	-1.0205841573	 0.5998492468	-0.160318
O	-0.1274717779	-0.5440373939	 1.8950836605	-0.374907
C	-0.2508075844	-0.4991043401	-1.682681773	 0.330554
N	-0.3395512782	 0.3488068551	-2.6172243258	-0.475754
O	-0.3120262195	-1.8592407118	-1.9368550138	-0.202416
C	 0.6440555703	-2.7095485307	-1.4429945783	 0.172328
O	 0.5345808341	-3.888187423	-1.5536760963	-0.255917
H	-0.1769084834	 1.9892343525	-0.8364602909	 0.16641
H	-1.061010301	 1.6388356946	 0.6739699632	 0.153027
H	 0.695444318	 1.6268449243	 0.683234826	 0.148826
H	-0.1326939922	-1.3525521006	 2.4213655321	 0.320382
H	-0.3928747463	-0.1221250455	-3.5216816394	 0.2425
H	 1.5034172824	-2.1826555393	-1.0055479334	 0.108874
