23
gdb 118857	2.7657	0.83863	0.72287	2.2265	84.1	-0.2507	0.0766	0.3272	1664.0736	0.203021	-425.39566	-425.384578	-425.383634	-425.432308	39.441	
C	 0.0483029237	 1.3616047076	 0.234553945	-0.223106
O	-0.0246279773	-0.0393574908	 0.3219578772	-0.233651
C	-1.2368871737	-0.5598968578	-0.1911134234	-0.128356
C	-1.1833607505	-2.0697665501	-0.1151806173	 0.319573
C	-0.0502388503	-2.676692669	-0.9237881755	-0.459474
C	-1.5623918935	-2.7292760567	 1.190774952	-0.310741
C	-2.4664180385	-2.871607201	-0.0089643643	-0.031223
C	-3.852708624	-2.2800035447	-0.0236880581	-0.111397
O	-4.7283893455	-3.2343834056	 0.5663172287	-0.418592
H	 1.0127533353	 1.6669706067	 0.6480695283	 0.126179
H	-0.0183136839	 1.7127828768	-0.8080607684	 0.101253
H	-0.7544146861	 1.8515651948	 0.8095364581	 0.100383
H	-2.0861807408	-0.1575998942	 0.3827717207	 0.079201
H	-1.3688476474	-0.2336611868	-1.2388014925	 0.080152
H	 0.9119599142	-2.2742292222	-0.5957182821	 0.134415
H	-0.0252005739	-3.7647469771	-0.8123951047	 0.110115
H	-0.1628925801	-2.4519120781	-1.9916050661	 0.107707
H	-0.9933881639	-3.591469639	 1.521251532	 0.109118
H	-1.9025179552	-2.0867922376	 1.9969514424	 0.109875
H	-2.4343027959	-3.8349418795	-0.5122668955	 0.088173
H	-3.8786885748	-1.3313732313	 0.5329354495	 0.082269
H	-4.157358553	-2.059718097	-1.0602051367	 0.08427
H	-5.6264755349	-2.8973332772	 0.4949424409	 0.283856
