19
gdb 109473	2.038	1.72438	0.98058	2.2213	78.93	-0.226	-0.0253	0.2007	1218.2102	0.157244	-423.049666	-423.040274	-423.03933	-423.084385	33.871	
C	 0.0719501167	 1.4384978414	 0.0209923856	-0.24108
O	-0.1478680421	 0.0427841433	-0.1032097498	-0.248948
C	 0.5917366987	-0.5737160131	-1.1368232706	-0.073243
C	 2.0598533739	-0.8760774964	-0.7345426529	 0.38654
O	 2.8221977186	-0.0866229303	-0.2411141596	-0.304515
C	 2.3428157412	-2.3545516348	-1.0248461978	-0.372247
C	 0.9850335179	-2.880806541	-1.4024635858	-0.178497
C	 0.034753832	-1.9415790781	-1.4506205743	 0.308386
C	-1.4143159621	-2.1182280618	-1.7686093484	-0.492985
H	 1.1079653358	 1.6634276406	 0.2931524804	 0.142553
H	-0.171434651	 1.9619111565	-0.9172191135	 0.100525
H	-0.5990979653	 1.7921133945	 0.8074718807	 0.124466
H	 0.5920136937	 0.0751121871	-2.0335273032	 0.083264
H	 3.0851063942	-2.4333867285	-1.8313182342	 0.135639
H	 2.7905456484	-2.8427456953	-0.1503972514	 0.138178
H	 0.809249679	-3.9302887933	-1.6148197329	 0.097277
H	-1.6660106817	-3.170318549	-1.9262204872	 0.122062
H	-2.0320843852	-1.7246515345	-0.9547896458	 0.147914
H	-1.6918411427	-1.5595546573	-2.6719116393	 0.124713
