15
gdb 44257	2.90021	1.5322	1.22004	1.9441	64.92	-0.2438	-0.0536	0.1902	1000.5619	0.111834	-457.77801	-457.770572	-457.769628	-457.810732	27.609	
O	-0.0056128411	-0.0231962368	-0.374766401	-0.27007
C	-0.0353735633	 1.143446502	-0.1283247319	 0.366328
C	-1.1646410909	 2.1474032905	 0.1884452023	-0.361788
C	-0.0646774998	 3.1443240252	 0.6760581935	-0.193817
C	 1.0618574243	 2.232167193	 0.1232349677	 0.005422
O	 2.0164656377	 1.9752119685	 1.1355844512	-0.251804
C	 1.4054785187	 2.1707034326	 2.4006527231	-0.196054
C	 0.1885223173	 3.082710459	 2.1830237866	 0.378902
O	-0.4461533207	 3.6247838566	 3.0467440201	-0.294753
H	-1.6810333759	 2.4893942836	-0.7136993053	 0.147255
H	-1.913552711	 1.8229559821	 0.9156320305	 0.149751
H	-0.1477754142	 4.1734606982	 0.3292347741	 0.115858
H	 1.5874832715	 2.543627489	-0.7829482154	 0.118201
H	 1.0634067474	 1.2210160369	 2.8422350368	 0.138529
H	 2.12590179	 2.6256768696	 3.0858529077	 0.14804
