21
gdb 50261	3.63176	1.1148	1.02447	2.9116	82.44	-0.2455	-0.0177	0.2278	1231.8036	0.185164	-387.101771	-387.093971	-387.093027	-387.134497	30.899	
O	-0.2612462016	 0.0623747312	 0.000754927	-0.249073
C	-0.0439025123	 1.2457934919	 0.008465837	 0.142933
C	 1.3222663017	 1.8929238754	-0.0028589988	-0.045001
C	 1.5004055722	 2.7536185385	-1.2870880212	-0.236246
C	 2.4871371001	 3.9090378053	-1.056123093	-0.007123
C	 3.5737523299	 3.51202467	-0.0127516259	-0.2284
C	 2.5159183763	 3.8821353088	 1.0693674821	-0.007216
C	 1.9169375022	 4.8640718491	 0.0267917725	-0.212409
C	 1.5353074334	 2.7210215285	 1.2976972093	-0.236109
H	-0.8836511719	 1.9837996633	 0.0260704011	 0.066108
H	 2.0514637868	 1.0797613085	-0.0227183341	 0.097976
H	 1.8421440484	 2.1012049201	-2.097673837	 0.108925
H	 0.5365171043	 3.1712266516	-1.6098849877	 0.099286
H	 2.8127831818	 4.3431521219	-2.0044792223	 0.063588
H	 3.9770656125	 2.4956223408	-0.0310838772	 0.09379
H	 4.403449259	 4.2234400951	-0.0149568777	 0.097362
H	 2.8672698405	 4.2922273685	 2.0192450039	 0.063606
H	 2.4314433262	 5.8287292956	 0.0320503558	 0.09569
H	 0.8346304747	 5.0321061522	 0.0435839434	 0.083965
H	 0.580680784	 3.1301473241	 1.6568150777	 0.099326
H	 1.8983864218	 2.0482411997	 2.0819021951	 0.109021
