19
gdb 126306	4.52359	0.88012	0.78073	3.0781	80.51	-0.2127	0.0091	0.2217	1517.0068	0.159356	-419.210276	-419.200875	-419.19993	-419.245419	33.573	
C	-0.4306926803	 1.5290402386	-0.0690182202	-0.37386
C	 0.1237183254	 0.0995729094	 0.0591444518	-0.29517
C	 0.9300985767	-0.3210359321	-1.1239304963	 0.466818
C	 2.2407984246	-0.6427007489	-1.2887917783	-0.437336
C	 2.3470491231	-0.9306003323	-2.6851828362	 0.451131
N	 3.4825241708	-1.2519316233	-3.3963908965	-0.373106
C	 4.5687114697	-1.9594393954	-2.7398360717	-0.326978
N	 1.1863459921	-0.8050396534	-3.2988502402	-0.255644
O	 0.285653947	-0.4039990103	-2.2982334366	-0.224049
H	 0.3815001529	 2.2568134109	-0.1560161525	 0.125167
H	-1.0620157182	 1.6202642629	-0.956366107	 0.142023
H	-1.0301015632	 1.7871133213	 0.8086738042	 0.116222
H	 0.7540348597	 0.0138022641	 0.9493778031	 0.115694
H	-0.7083639744	-0.6032477439	 0.1894372264	 0.127064
H	 3.0107318397	-0.6650442094	-0.5365859752	 0.109776
H	 3.2672338081	-1.5778873715	-4.3282040104	 0.247845
H	 5.376798037	-2.1075064633	-3.4598600047	 0.13072
H	 4.9685234131	-1.354962945	-1.9199098504	 0.135415
H	 4.2795142361	-2.9404875784	-2.3333107393	 0.118266
