21
gdb 78029	2.30378	1.45997	1.24794	1.6169	77.88	-0.2435	0.0717	0.3152	1130.2467	0.182214	-424.219584	-424.210219	-424.209275	-424.25333	35.901	
C	-0.2637334574	 1.4997956386	-0.1501682313	-0.417697
C	 0.0554093592	 0.0241177527	-0.0179619693	-0.068616
C	 1.3894598752	-0.6585727831	-0.30851171	-0.105363
C	 2.6729123876	 0.1428504368	-0.3375210927	 0.121506
O	 2.6925591212	 1.0033866675	-1.4731936296	-0.436126
C	 2.7346102869	 0.905130621	 1.0168482299	-0.271532
C	 1.7595121398	 0.1832123555	 1.9748768606	-0.286078
C	 0.8290245348	-0.6452326024	 1.0900837877	 0.365555
O	 0.3380714267	-1.8365448762	 1.6384822029	-0.469599
H	-0.2812629588	 1.7989904581	-1.2024671309	 0.131904
H	-1.2511400071	 1.7110303322	 0.2763605785	 0.106158
H	 0.4537939447	 2.1457500165	 0.3572114145	 0.119046
H	-0.7623235492	-0.6116915713	-0.3524807365	 0.087169
H	 1.3462037231	-1.565136828	-0.9011117068	 0.089186
H	 3.513377583	-0.565918307	-0.400969139	 0.06675
H	 3.5512673934	 1.4376512276	-1.5009364035	 0.278886
H	 3.7516398522	 0.9350424707	 1.4196134064	 0.094694
H	 2.4344335306	 1.9406629607	 0.8384154673	 0.112362
H	 2.2928730085	-0.5223001614	 2.6200935994	 0.110511
H	 1.2269553244	 0.8812248066	 2.631913484	 0.091949
H	-0.429578979	-1.6198226854	 2.1783078584	 0.279334
