17
gdb 54876	2.75597	1.56666	1.01143	2.1325	77.19	-0.2416	-0.0213	0.2203	1137.7889	0.137934	-414.22184	-414.213777	-414.212833	-414.254651	30.311	
C	-0.052185894	 1.4953818397	 0.0084555389	-0.470012
C	 0.0960051104	-0.0062740723	 0.0012519286	 0.383154
N	 1.2454113014	-0.5382451143	-0.01048794	-0.495003
N	-1.1296622129	-0.7338011403	 0.0088226562	-0.161027
C	-2.4230669452	-0.1884698531	 0.0217747499	 0.081323
N	-3.3972363875	-1.0085960921	 0.0270550484	-0.262994
C	-2.7939914211	-2.3420426962	 0.0170382643	-0.271342
C	-1.2814954004	-2.1333511095	 0.0049156958	 0.368106
N	-0.3123968639	-2.9556486463	-0.006521309	-0.541863
H	 0.9497379122	 1.9220265914	 0.0019951921	 0.158616
H	-0.597547345	 1.8554039838	-0.870892387	 0.13682
H	-0.5831986098	 1.8483753293	 0.8993553991	 0.136814
H	 1.1808411628	-1.5589083148	-0.0138185919	 0.260328
H	-2.5429397213	 0.8867877564	 0.026737778	 0.149185
H	-3.1076789543	-2.9120111514	 0.8992325816	 0.148768
H	-3.1227142043	-2.9055895203	-0.8638011108	 0.14877
H	-0.6524374271	-3.9162783401	-0.0072245142	 0.230357
