17
gdb 5744	4.67824	1.82861	1.41306	2.2364	75.73	-0.1943	0.0549	0.2493	895.5697	0.144192	-326.735993	-326.729042	-326.728098	-326.767288	26.81	
C	-0.3814266312	 1.6069850947	-0.2421535316	-0.398513
C	 0.0272641685	 0.1619133362	-0.0193966897	 0.056491
C	 0.7859565455	-0.5824750085	-1.191691377	-0.405341
C	 1.9263258	-0.7185143265	-0.1983464232	 0.342654
C	 3.1229018012	-1.1708946028	 0.309375697	-0.333125
C	 3.1391786391	-0.7190784734	 1.6692056566	-0.128226
C	 1.9653083031	-0.0333827741	 1.9466098896	-0.166471
N	 1.2599035614	-0.0404801005	 0.7749121626	 0.023644
H	 0.4530454068	 2.1893584193	-0.6440334162	 0.131122
H	-1.2151951391	 1.6567835311	-0.9501432615	 0.12456
H	-0.7067079159	 2.072569909	 0.693756014	 0.126433
H	-0.8102089024	-0.4223983342	 0.3777542101	 0.097562
H	 0.312903564	-1.5126203555	-1.518647282	 0.119108
H	 0.9757611526	 0.0451488167	-2.0678507564	 0.115598
H	 3.8923762071	-1.738857014	-0.189024081	 0.091656
H	 3.9446835862	-0.8717330121	 2.3728139462	 0.089334
H	 1.6222394031	 0.4538069146	 2.8444824528	 0.113515
