19
gdb 35793	3.73647	1.13306	0.96424	3.0245	79.29	-0.237	0.0357	0.2727	1222.9261	0.162223	-382.069057	-382.06123	-382.060285	-382.101504	30.438	
N	 0.0165851782	-1.1791930387	-0.0960599652	-0.322894
C	-0.0014681004	-0.0246518979	-0.0415456363	 0.259373
C	-0.0143727538	 1.4355479082	 0.0417071406	-0.13362
C	-0.7847762584	 1.9353238186	 1.2800727119	-0.223664
C	-0.907545111	 3.4656289398	 1.2070980728	-0.16361
N	 0.3200088468	 4.2074686157	 0.9248350314	-0.080521
C	 1.4965962537	 3.9881681624	 1.7517320052	-0.241839
C	 1.4666921879	 3.4981801278	 0.3410172046	-0.025126
C	 1.4292106457	 1.9948498949	 0.059146056	-0.237723
H	-0.5300525562	 1.808689172	-0.8535654714	 0.126547
H	-1.7851119555	 1.4941251767	 1.3153040488	 0.122708
H	-0.261721306	 1.6116100704	 2.1870849286	 0.117909
H	-1.61623509	 3.714393013	 0.406253635	 0.111531
H	-1.3314229074	 3.8566760687	 2.1379837659	 0.113441
H	 2.0510317628	 4.8837128908	 2.0208397122	 0.117931
H	 1.4625791621	 3.2293428883	 2.5327021783	 0.108349
H	 1.986875709	 4.0848838347	-0.4126046901	 0.09888
H	 2.0004852863	 1.4476616718	 0.8163134575	 0.127451
H	 1.9095808663	 1.7900273028	-0.9009251156	 0.124877
