17
gdb 68350	2.44796	2.1072	1.37036	3.2318	73.26	-0.2302	-0.06	0.1703	949.135	0.136295	-421.835425	-421.827942	-421.826998	-421.867044	29.575	
C	 0.0132287493	 1.5278322967	 0.0883011304	-0.477518
C	 0.0181030433	 0.0281001492	-0.0259398497	 0.270724
C	 0.6747249361	-0.6868783205	-1.2425174655	-0.291011
C	 1.076397173	-1.7014563763	-0.1411186121	 0.033652
O	 0.9866942497	-0.6395376197	 0.8505480808	-0.318464
C	-0.0656636776	-2.6670131238	 0.0933670649	-0.049879
C	-1.2634166186	-2.1169335515	 0.3318964532	-0.159254
C	-1.3500806273	-0.6330595856	 0.2670570244	 0.37948
O	-2.3776510864	-0.0060859545	 0.4013574478	-0.335807
H	 1.0109720546	 1.9268534077	-0.1100821023	 0.118724
H	-0.698213628	 1.9559269646	-0.6230638841	 0.137259
H	-0.299939125	 1.831571843	 1.0911753034	 0.141167
H	 0.0447597875	-1.0339922069	-2.0627967837	 0.114421
H	 1.5270160616	-0.1150919099	-1.6160541473	 0.115635
H	 2.0611931947	-2.1712653149	-0.1647879733	 0.086271
H	 0.0990090696	-3.7392347445	 0.054272519	 0.116168
H	-2.1714041862	-2.6747623631	 0.5324072042	 0.118431
