16
gdb 123765	4.84411	1.08183	1.0101	3.3054	70.	-0.2415	-0.0013	0.2402	1181.0106	0.127421	-434.066486	-434.05908	-434.058136	-434.099974	26.599	
C	-0.078076339	 1.173794369	-0.1950146474	-0.056152
C	 1.4313966758	 1.4639077713	-0.102961425	-0.299706
C	 1.4898803129	 0.1647476407	 0.7346505458	 0.061262
O	 0.0732057819	-0.0743701132	 0.5140041599	-0.291345
C	 2.351627438	-0.952040675	 0.2436835322	 0.340842
N	 2.5541690904	-1.1908532913	-1.0457664469	-0.261713
N	 3.3451755426	-2.2843485478	-1.0145742447	-0.173663
C	 3.5887092149	-2.6523173297	 0.2598562869	 0.014828
N	 2.9766872936	-1.8295361313	 1.0864973753	-0.303254
H	-0.7257527132	 1.8732724512	 0.348688269	 0.098136
H	-0.4820075847	 1.0244770202	-1.2028131183	 0.107364
H	 1.9658284881	 1.3965242211	-1.0501603478	 0.12991
H	 1.7205563552	 2.3745977605	 0.4228746262	 0.109348
H	 1.697925879	 0.3073609304	 1.8008719867	 0.091164
H	 3.6642914573	-2.6987496367	-1.8752165215	 0.283914
H	 4.2023214073	-3.4999337494	 0.5256385894	 0.149064
