18
gdb 124728	4.11872	0.98383	0.93819	2.0596	74.36	-0.2519	-0.0132	0.2388	1339.6649	0.147536	-435.278147	-435.268904	-435.26796	-435.312669	33.129	
C	-0.1406335127	 1.459618941	 0.0075965894	-0.401743
C	-0.0283044837	-0.078963271	 0.0080004302	-0.084767
N	 0.6639043069	-0.6540725654	-1.1517919381	-0.517891
C	 0.6544161381	-0.5498579602	 1.2574437615	 0.469327
N	 0.1352229278	-1.1037235575	 2.3092659745	-0.359497
C	 1.2367933749	-1.275804371	 3.1254813468	 0.349604
C	 1.1602309009	-1.8940955331	 4.4780069352	-0.489
N	 2.3616953351	-0.8539884296	 2.6105671976	-0.170761
O	 1.9763764157	-0.3591141588	 1.3531885843	-0.216043
H	 0.852952873	 1.9188313469	 0.0106503751	 0.13071
H	-0.6719500306	 1.7901417013	-0.8904169768	 0.116661
H	-0.6905443138	 1.8210232841	 0.8825355726	 0.13213
H	-1.0338521658	-0.5086649997	 0.0435900362	 0.121542
H	 0.1994504653	-0.3482278655	-2.0018533457	 0.231969
H	 1.6136689737	-0.2941603399	-1.1957720375	 0.239758
H	 0.7636520829	-2.9112267776	 4.4060144182	 0.150488
H	 2.1487044115	-1.9249904218	 4.9383279303	 0.149527
H	 0.4812996507	-1.3224477922	 5.1177938264	 0.147985
