18
gdb 46514	4.02116	1.13826	0.98403	2.9919	71.91	-0.2419	0.028	0.2699	1191.6261	0.149163	-439.109708	-439.101751	-439.100807	-439.142918	30.47	
O	 0.0181745537	-0.0665998988	-0.5625640263	-0.369734
C	-0.0025297414	 1.0815103935	-0.1661114685	 0.392258
C	-1.246848417	 1.784591637	 0.3621555428	-0.333986
C	-1.3057088873	 3.2349004186	-0.1426171801	-0.284591
C	-0.068360099	 4.015649191	 0.2764357404	 0.428173
C	 0.0571753945	 5.4415814673	-0.0489556759	-0.237742
O	-0.2531891265	 5.0183464741	 1.2831621648	-0.26947
C	 1.1762570615	 3.1581270708	 0.523576877	-0.251368
N	 1.1023739875	 1.89586642	-0.1961452448	-0.304353
H	-2.1149845861	 1.2039249576	 0.047333928	 0.131706
H	-1.2218674465	 1.7684355233	 1.4598929275	 0.129488
H	-1.3763619709	 3.2260064356	-1.2365505846	 0.120057
H	-2.18853714	 3.7553902101	 0.2388693498	 0.121147
H	 1.0440302407	 5.8840212394	-0.1820569927	 0.113857
H	-0.7498682502	 5.9490462269	-0.5773265972	 0.11712
H	 2.0796668659	 3.6858169627	 0.2084353784	 0.119838
H	 1.2568926185	 3.0051004034	 1.6102334088	 0.12835
H	 1.9616543626	 1.4379126875	-0.4620340574	 0.249252
