21
gdb 112020	3.36688	1.30613	1.14823	0.8899	84.02	-0.2373	0.012	0.2492	1162.6834	0.184377	-387.073064	-387.065026	-387.064082	-387.10569	31.755	
C	-0.0133737752	 1.394180065	-0.0781397393	-0.236983
O	-0.0183101881	 0.0085566599	 0.167679644	-0.251045
C	-1.3000588123	-0.6097680699	 0.0636465567	 0.113241
C	-1.7574164598	-0.7702293333	-1.3747475355	-0.10035
C	-1.9782245653	-1.9973459014	-1.8479929759	-0.059367
C	-1.770144365	-3.1746532122	-0.9215200467	-0.056848
C	-2.4564861986	-2.833913852	 0.4403917951	-0.231243
C	-1.1882998523	-1.9842072964	 0.738522784	-0.043384
C	-0.4121055478	-2.9708412189	-0.1793384456	-0.21173
H	 0.9965379457	 1.7553573462	 0.1333476806	 0.125413
H	-0.2572507907	 1.6428511975	-1.1215764539	 0.10549
H	-0.7224521088	 1.9267605532	 0.5761885227	 0.100006
H	-2.0298675141	 0.0085845096	 0.617341896	 0.062428
H	-1.8958711295	 0.1172830919	-1.9840261545	 0.087304
H	-2.3105747664	-2.1683379914	-2.8678449958	 0.088494
H	-1.9794258384	-4.1355121925	-1.3937994073	 0.057154
H	-3.4263654034	-2.3308903471	 0.4018240515	 0.093048
H	-2.515045471	-3.7021223406	 1.1029161253	 0.095487
H	-0.8616227796	-1.8664637779	 1.7735621691	 0.064713
H	-0.1110988129	-3.8668580564	 0.3700374565	 0.09102
H	 0.4285667335	-2.5794895835	-0.754112737	 0.107149
