16
gdb 125277	5.29063	1.23627	1.00841	4.0597	78.61	-0.1911	0.0289	0.2201	1135.1501	0.127236	-396.962307	-396.95453	-396.953586	-396.994325	29.301	
C	-0.0239738483	 1.491604861	 0.0828413436	-0.502729
C	-0.0017967555	 0.0060258508	-0.0495938076	 0.344887
C	-0.047579117	-0.7930718006	-1.1641671836	-0.441009
C	 0.0031521999	-2.1578134858	-0.7164661156	 0.254238
C	 0.0783859291	-2.1028168637	 0.6721120621	 0.448316
N	 0.1297164542	-3.3645901888	 1.1551364736	-0.366279
N	 0.0905896769	-4.2714613874	 0.1258264025	-0.230939
C	 0.0153210678	-3.5506049423	-0.9882938894	-0.153764
N	 0.0764313174	-0.8061050375	 1.0965462145	-0.47178
H	 0.8782215494	 1.878150096	 0.5744764553	 0.125767
H	-0.081975539	 1.9489866314	-0.9072486216	 0.141314
H	-0.8871641855	 1.8441368039	 0.6622716389	 0.126006
H	-0.1103610985	-0.4282158189	-2.177909318	 0.096768
H	 0.1874092031	-3.7032736253	 2.0978962431	 0.265849
H	-0.0268615568	-4.0643981753	-1.9375702358	 0.105502
H	 0.1237156627	-0.4678149674	 2.0406592081	 0.257853
