18
gdb 11066	3.36881	2.28772	1.94148	1.388	66.54	-0.2392	0.0854	0.3246	781.4091	0.155548	-384.948547	-384.941844	-384.9409	-384.978916	27.131	
C	 0.0324178463	 1.4716523895	 0.0697484056	-0.477999
C	-0.0284363233	-0.0326755302	-0.0386078871	 0.380572
C	 0.6136803526	-0.6677635737	-1.2871818219	-0.097267
O	 0.1255660838	-2.0241937634	-1.2648128812	-0.283636
C	-0.6903278812	-2.1194111887	-0.088525817	 0.070151
C	 0.2355009612	-2.0085101437	 1.1290257596	-0.080166
O	 0.6284307538	-0.6221842198	 1.1054419619	-0.314392
C	-1.3903353447	-0.7549303474	-0.0404240448	-0.269352
H	 1.0712995123	 1.8156625078	 0.073502557	 0.129149
H	-0.4840842946	 1.9406768443	-0.7727975328	 0.118902
H	-0.4370346296	 1.8045885399	 0.9993004556	 0.128597
H	 0.3085786219	-0.1810303174	-2.2229119974	 0.093597
H	 1.706895991	-0.6556078313	-1.2135476289	 0.105264
H	-1.2949855889	-3.02365566	-0.1503059032	 0.081967
H	-0.2679911028	-2.2372680449	 2.0778133235	 0.095384
H	 1.1128952401	-2.6554362362	 1.0214672935	 0.107578
H	-1.9616824761	-0.5693070082	 0.8714507107	 0.105389
H	-1.9986780017	-0.5620616265	-0.9260467631	 0.106262
