21
gdb 97671	3.56975	0.75572	0.69742	1.7527	88.95	-0.241	0.0371	0.2781	1741.3143	0.180327	-387.054915	-387.044513	-387.043569	-387.092855	36.705	
C	 0.1021590177	 1.5533972361	 0.5251061495	-0.363994
C	-0.0182353432	 0.2489972622	-0.2838934513	-0.316
C	-1.3549541461	-0.33418592	-0.2377076533	 0.039833
C	-2.4627240911	-0.8057074887	-0.1799373546	 0.095135
C	-3.8066320225	-1.3733336562	-0.1191195485	 0.22531
C	-4.6916561414	-0.6150280747	 0.8655118324	-0.428467
C	-4.4426437337	-1.6933111107	-1.5077924928	-0.318881
C	-4.2886798335	-3.1657091162	-1.0910280762	-0.064554
O	-3.7783089848	-2.799623813	 0.2063935218	-0.304388
H	 1.1201294552	 1.9492470397	 0.4614840105	 0.114445
H	-0.5868534958	 2.3120586694	 0.1439337034	 0.126683
H	-0.1361309926	 1.3803828517	 1.577975821	 0.129645
H	 0.2628136055	 0.4372095485	-1.3282070521	 0.127726
H	 0.7054380842	-0.4850021094	 0.0934655119	 0.133444
H	-4.7764251256	 0.4361245563	 0.5726872237	 0.122367
H	-5.6899000823	-1.061230161	 0.891593527	 0.114917
H	-4.260522492	-0.6611565407	 1.8692162295	 0.133335
H	-5.4712265119	-1.3425487078	-1.6090724144	 0.109863
H	-3.8589164916	-1.3734299694	-2.3701668892	 0.117516
H	-5.2135646208	-3.7493362372	-1.0155726739	 0.101669
H	-3.5547284237	-3.7388725287	-1.6708433343	 0.104396
