20
gdb 6026	2.62819	1.7629	1.44076	4.0795	75.29	-0.225	0.0372	0.2622	997.0512	0.174826	-345.185472	-345.175754	-345.17481	-345.219052	35.81	
C	 0.0254897322	 1.488358177	 0.0591130348	-0.342791
N	-0.0189551666	 0.0306449654	 0.0566125322	-0.070525
C	 0.8231641408	-0.5207520498	 1.1087529094	-0.33258
C	-1.3781459271	-0.54247609	-0.0277965448	 0.115314
C	-1.3124435286	-2.0804556402	-0.1635273715	-0.421112
C	-2.317760313	-0.1618490895	 1.1466188172	-0.414053
C	-1.987493972	-0.0352716	-1.2806585758	 0.295964
N	-2.4959678765	 0.3425231148	-2.2470929138	-0.35377
H	 1.0581895355	 1.8085784781	-0.1102111284	 0.124559
H	-0.5856855252	 1.8863712048	-0.7542875069	 0.148541
H	-0.3132536903	 1.9449468938	 1.0058587965	 0.09796
H	 0.4774331207	-0.2898066995	 2.1326581265	 0.097984
H	 0.9170718157	-1.6038446687	 1.0135433375	 0.125579
H	 1.8256496208	-0.0957030195	 1.0014275696	 0.127709
H	-1.043171974	-2.5425694767	 0.7888852078	 0.125525
H	-2.2899708502	-2.4679270884	-0.4589338165	 0.137928
H	-0.5784781127	-2.3633995802	-0.9213312858	 0.142754
H	-2.4473460227	 0.9198317656	 1.2209356078	 0.135394
H	-3.3044873238	-0.6113988215	 1.0080046521	 0.134605
H	-1.9036911128	-0.5309053356	 2.0889930823	 0.125016
