20
gdb 110501	2.65185	1.44801	1.19222	2.868	77.76	-0.2422	0.0709	0.3132	1121.0714	0.171262	-403.078956	-403.070645	-403.0697	-403.111684	32.587	
C	-0.066007212	 1.569373261	 0.07992136	-0.514248
C	 0.0128311995	 0.0666863437	 0.0308152375	 0.263773
C	-1.2502261799	-0.823781156	 0.2278522759	-0.29172
C	-0.2839405232	-1.9082002219	 0.6930139466	-0.036925
C	 0.7593898733	-0.9161822665	 1.0332175919	-0.097446
N	 0.9996071036	-1.8447768182	-0.1041122746	-0.176377
C	 0.8123089744	-0.6934099253	-1.0546057618	 0.027658
C	 0.279349848	-1.080911724	-2.4246569084	-0.091063
O	 1.1955799691	-1.9508473218	-3.07044767	-0.424
H	 0.9290232927	 2.0229757895	 0.0152934589	 0.122359
H	-0.6633783467	 1.9563982858	-0.753920315	 0.125059
H	-0.5333641676	 1.914584664	 1.0083526654	 0.121005
H	-1.8457003687	-0.4646952775	 1.0723341874	 0.105251
H	-1.9065786492	-1.0044928932	-0.6286749936	 0.098238
H	-0.4983175515	-2.8603070469	 1.1598391837	 0.099603
H	 1.4297374804	-0.7885536627	 1.8734715687	 0.097922
H	 1.8025864404	-0.2408552447	-1.1839493019	 0.084743
H	-0.7143375227	-1.5456599186	-2.346867265	 0.086718
H	 0.1806961824	-0.1945744899	-3.062221737	 0.105148
H	 1.4289146274	-2.6262899268	-2.4218108786	 0.294301
