17
gdb 83695	2.32323	1.82369	1.46328	2.9885	67.26	-0.2552	-0.0394	0.2158	952.872	0.135623	-458.927855	-458.919934	-458.91899	-458.961143	29.387	
O	 0.7496768648	 0.9288489224	 0.3883071484	-0.436168
C	 0.137905066	-0.2768584366	 0.046747652	 0.115901
C	-1.4176265359	-0.3738531333	 0.0420051115	-0.10796
C	-2.1463026214	 0.8081225226	-0.6207900619	-0.095205
O	-2.0835817595	 0.1761604201	-1.9310782468	-0.281196
C	-1.3838886969	-0.9532811015	-1.3970609448	 0.102972
C	 0.182450214	-0.7779374622	-1.4440826093	-0.204226
C	 0.6165726948	 0.1808536389	-2.5110539906	 0.184274
O	 0.8486650671	 1.3563129725	-2.3293167418	-0.274378
H	 0.8236565095	 1.4535057536	-0.4241586562	 0.305164
H	 0.5456377306	-1.0516040667	 0.7055948243	 0.092361
H	-1.9000644418	-0.8519835378	 0.8927592527	 0.082721
H	-3.1854803584	 0.9511725775	-0.3072997308	 0.111724
H	-1.6197734737	 1.7677981366	-0.5951929839	 0.120537
H	-1.793526742	-1.9091946478	-1.7295166958	 0.085343
H	 0.7085434568	-1.728335147	-1.5810082831	 0.096307
H	 0.6958070963	-0.2490279615	-3.5319614738	 0.101826
