13
gdb 64647	2.36495	1.62876	1.38299	5.8185	64.62	-0.2492	-0.0522	0.1969	959.4286	0.08858	-452.778005	-452.769823	-452.768879	-452.810874	29.632	
O	-0.0807904234	 1.4335297237	-0.0014903518	-0.432792
C	 0.0441105221	 0.0242866393	 0.0335744965	 0.109425
C	 0.6144596819	-0.5525871996	 1.3146334654	-0.201014
C	-0.3333910568	-1.2773884352	 1.9138851834	-0.005319
N	-1.5282795989	-1.2925569445	 1.1845273065	-0.339799
C	-1.4348603669	-0.5332686653	 0.0383244411	 0.429268
O	-2.2899747419	-0.3167709243	-0.7730929868	-0.328572
C	 0.7720339902	-0.4739467951	-1.1476350658	 0.243696
N	 1.3833766887	-0.8449829509	-2.0558303481	-0.33071
H	 0.8051370186	 1.8146564131	-0.0036931325	 0.298552
H	 1.6292970674	-0.4065342855	 1.6492416119	 0.129206
H	-0.2777914784	-1.8281767778	 2.8420904788	 0.151321
H	-2.3895461326	-1.724337378	 1.4756903114	 0.276739
