14
gdb 25830	4.14029	1.1222	0.88366	13.5434	66.88	-0.19	-0.0151	0.1749	1209.3296	0.101766	-470.046281	-470.038209	-470.037265	-470.079171	29.607	
N	 0.1103835896	 1.3601833697	 0.1252930573	-0.598743
C	 0.0067173348	-0.0013268118	 0.0274580528	 0.498452
N	-1.1458452827	-0.7007538233	 0.0160908851	-0.303327
H	-2.0642823339	-0.2907758454	 0.073044364	 0.284035
C	-0.8527759689	-2.0762742318	-0.0051690841	-0.199365
C	 0.4963681569	-2.1854059096	-0.004390537	 0.170495
N	 0.9917106203	-0.8880652197	 0.0137152814	-0.273698
C	 1.6173591276	-3.2582440428	-0.0342316365	 0.340852
O	 2.7379038114	-2.6876913047	-0.0295459771	-0.515235
O	 1.2528336547	-4.4295164486	-0.0586180413	-0.442253
H	 1.0364086148	 1.7247101898	-0.044799961	 0.288122
H	-0.6058442633	 1.895273941	-0.3443203374	 0.278522
H	-1.6285609249	-2.8198341681	-0.0275954966	 0.176213
H	 2.0251464837	-0.8850574048	 0.0073857804	 0.295929
