14
gdb 26056	3.31859	1.148	1.0613	4.0828	68.71	-0.2456	-0.0204	0.2253	1141.2818	0.101372	-436.712401	-436.704471	-436.703527	-436.745752	28.533	
O	-0.230612881	 1.3473748743	 0.0825108073	-0.398515
C	 0.0106889818	-0.0465805508	-0.0051934447	-0.138885
C	 0.8038867739	-0.3653324876	-1.217623887	 0.264761
N	 1.4253985136	-0.5991076738	-2.1629543138	-0.320147
C	 0.6492484457	-0.6171812988	 1.2193242471	 0.384354
C	 0.2441709783	-1.5092235603	 2.1609850709	-0.28149
C	 1.3106145338	-1.5971879276	 3.1139196551	-0.165062
C	 2.2760027063	-0.748143975	 2.6772580819	-0.010937
O	 1.8920296339	-0.1433593334	 1.5218100602	-0.187483
H	 0.6125889585	 1.7781984414	 0.26797873	 0.302102
H	-0.971778501	-0.5151873609	-0.1182759776	 0.155675
H	-0.6951758735	-2.039333732	 2.1770502822	 0.124891
H	 1.346857958	-2.2097310536	 4.0006087849	 0.124441
H	 3.2484172416	-0.4700703718	 3.0483409536	 0.146295
