15
gdb 34527	3.99171	1.32785	1.24852	1.5975	78.77	-0.2178	-0.042	0.1759	1016.552	0.11288	-383.429803	-383.422934	-383.42199	-383.46092	28.027	
C	 0.0934738086	-1.1790818435	 0.0143419826	-0.401308
C	-0.0276943264	 0.0209826973	-0.0055084563	 0.162299
C	-0.0942247795	 1.4220426299	-0.0331984601	 0.262648
C	-1.1351857513	 2.2638602667	-0.0124475884	-0.224246
C	-0.5087212739	 3.6772789959	 0.0216382536	-0.034296
O	 0.6507624982	 3.4555740554	-0.7961684742	-0.227174
C	 1.1564152113	 2.3697922868	-0.0145846909	-0.112394
C	 1.2028562496	 3.0238318993	 1.3861143796	-0.076932
C	 0.1591010166	 3.8462492422	 1.4104838657	-0.075245
H	 0.1775109479	-2.2372266529	 0.0315170424	 0.19082
H	-2.1891971129	 2.0354249599	 0.0391935308	 0.121367
H	-1.1142852588	 4.5002056965	-0.3533110213	 0.088541
H	 2.0778942601	 1.963223824	-0.4252290363	 0.092965
H	 1.9122193989	 2.7811237285	 2.1634010474	 0.117799
H	-0.2215376583	 4.4587888539	 2.2145740554	 0.115158
