18
gdb 98606	4.52233	0.98147	0.88789	2.9746	74.49	-0.2376	0.0137	0.2513	1330.9731	0.147438	-439.038266	-439.029616	-439.028672	-439.073619	31.285	
C	 0.0375000314	 1.5314709208	 0.2533190595	-0.335069
N	 0.0929075572	 0.0974350699	 0.0474136291	-0.317186
C	 0.2743053019	-0.4642568025	-1.1838092002	 0.3955
O	 0.4113048783	 0.2067217902	-2.1952419482	-0.38157
C	 0.2835481172	-1.98504899	-1.1476184208	-0.098692
C	-0.5913846096	-2.8605510449	-2.10036401	 0.038364
C	 0.3150450042	-2.5100636641	-3.3019619741	-0.227867
C	 1.1920993287	-2.8471585124	-2.0746493454	 0.042197
O	 0.3023621813	-3.9997967817	-1.787764353	-0.314607
H	 0.1725964842	 2.0038951047	-0.7200638434	 0.173569
H	-0.9287273568	 1.8372642406	 0.6698343734	 0.127547
H	 0.8319673437	 1.8673422328	 0.9288616063	 0.127782
H	-0.0128027323	-0.5088305217	 0.8432159566	 0.249662
H	 0.2681931572	-2.3802760029	-0.1288741126	 0.073266
H	-1.666642541	-3.0359118878	-2.0547507839	 0.097864
H	 0.330514345	-3.2707303268	-4.0831555301	 0.101298
H	 0.3187259508	-1.483259187	-3.6593087282	 0.148854
H	 2.2675315185	-3.009502287	-2.0004126348	 0.099087
