12
gdb 127217	2.42385	2.0467	1.11746	1.9591	58.98	-0.3041	-0.1171	0.187	967.6443	0.075663	-505.945366	-505.937361	-505.936417	-505.979268	27.316	
C	-0.0193003824	 1.4640581427	-0.0031934429	-0.34768
N	 0.0038483417	-0.0060208625	 0.0072876252	-0.245983
C	 0.1121275182	-0.6414917196	-1.2284371478	 0.532995
O	 0.1843699864	-0.045838025	-2.2632182678	-0.339746
O	 0.1316762346	-1.9975202148	-1.1953101901	-0.271573
N	 0.0427224975	-2.744248465	 0.0810071325	 0.085674
N	-0.0497032342	-2.1247188895	 1.1190015306	-0.121383
C	-0.0806830055	-0.6731725845	 1.21025422	 0.511216
O	-0.174586656	-0.1574095227	 2.2876200186	-0.315759
H	 0.8996901367	 1.8409265252	-0.4548299436	 0.166964
H	-0.8683186846	 1.8121539052	-0.5935902287	 0.166941
H	-0.1057404724	 1.7969336607	 1.0282627738	 0.178334
