18
gdb 83094	2.37013	1.99138	1.87812	1.933	74.08	-0.2421	-0.005	0.2371	885.3139	0.150676	-401.961655	-401.954664	-401.95372	-401.992589	28.492	
C	-0.2064006926	 1.5453338862	-0.01329039	-0.417922
C	 0.0435454931	 0.0414514033	 0.0154261482	-0.013234
C	 0.9785494906	-0.5300401883	-1.0656030306	 0.06259
O	 2.2583177333	 0.1819526842	-0.9924547443	-0.243682
C	 2.6952408915	 0.4216485538	 0.2679622906	 0.122858
N	 2.1217041365	 0.1554285888	 1.3699174118	-0.26557
C	 0.8158546234	-0.5293247849	 1.2347215708	-0.041433
C	 1.1101601556	-1.9470556428	 0.7559005377	-0.063371
C	 1.203293196	-1.9466524787	-0.5773729224	-0.084742
H	 0.7146299763	 2.1239216157	 0.0817101031	 0.136456
H	-0.692922982	 1.8370498797	-0.950228541	 0.113605
H	-0.8681208949	 1.8365422537	 0.8090030335	 0.118469
H	-0.9113938866	-0.4880266432	-0.065382323	 0.084031
H	 0.6532638142	-0.4085854265	-2.0989174962	 0.082618
H	 3.6700047379	 0.9063254436	 0.2441994822	 0.123048
H	 0.2822361741	-0.4616235929	 2.184364696	 0.071068
H	 1.3159474813	-2.7759052499	 1.4221963854	 0.10959
H	 1.5060019125	-2.7673618319	-1.2151821619	 0.105621
