15
gdb 129760	2.87976	1.53384	1.05094	5.0739	70.24	-0.2088	0.0076	0.2164	1083.3944	0.114345	-450.071612	-450.063856	-450.062912	-450.103973	28.943	
N	-0.0337600801	 1.4371035627	 0.2282643994	-0.597094
C	-0.0639499764	 0.058339469	 0.0526467816	 0.144362
C	-1.1046977241	-0.8265935189	-0.1713467272	 0.316545
C	-2.4918803553	-1.4406517572	-0.2757583233	-0.091796
O	-3.1981948601	-1.0801351331	-1.4315119226	-0.41441
C	-1.7276490168	-2.8426164632	-0.3063698092	-0.194572
N	-0.4996976661	-2.0302456462	-0.1883462311	 0.088927
N	 0.8045919253	-1.9900980959	 0.0324869753	-0.188546
N	 1.0730107006	-0.695013032	 0.1524870946	-0.248423
H	 0.9160922399	 1.7840349115	 0.1782801061	 0.256158
H	-0.6300575541	 1.9400145934	-0.4148030692	 0.252354
H	-3.1041774773	-1.3219173795	 0.6266939818	 0.102614
H	-4.1027647121	-1.3996402448	-1.3500100727	 0.293567
H	-1.8935172698	-3.5119718634	 0.5404893897	 0.138622
H	-1.8117540237	-3.3721868424	-1.2570156932	 0.141693
