13
gdb 125719	3.23726	1.49781	1.03052	2.9743	65.21	-0.2844	-0.0942	0.1902	1069.392	0.087475	-489.885193	-489.877291	-489.876347	-489.918645	28.132	
C	-0.2447691601	 1.4775247277	-0.0064329849	-0.462856
C	 0.005910605	 0.0027630863	-0.0053957497	 0.201827
N	 0.0763060531	-0.6098980319	-1.1270841385	-0.101788
O	 0.3109772517	-1.9861363583	-1.1002399534	-0.273263
C	 0.4677107582	-2.703416841	 0.0609671446	 0.508949
N	 0.6761854561	-3.9364411618	 0.0785446768	-0.514851
O	 0.3880502924	-2.0260577569	 1.2406925493	-0.212837
C	 0.1613045845	-0.679609129	 1.3033160184	 0.413825
O	 0.1000610791	-0.1325156001	 2.3634924168	-0.291529
H	 0.5735691314	 1.9992406145	 0.4989087201	 0.162017
H	-0.3365896402	 1.8386176337	-1.0311043154	 0.156765
H	-1.1588859095	 1.7047937291	 0.5503337214	 0.162017
H	 0.7111589284	-4.3132691322	-0.8660948254	 0.251724
