19
gdb 105482	1.98949	1.49954	1.17672	2.2507	70.94	-0.2493	-0.0198	0.2295	1149.5635	0.156774	-460.149022	-460.139204	-460.13826	-460.184698	34.656	
C	-1.5352276949	-0.2732137465	 0.7134399252	-0.496893
C	-0.1338557557	-0.1636755015	 0.1438766187	 0.34618
O	 0.7467179182	 0.4228590389	 0.7296671714	-0.301801
C	 0.1217775004	-0.8415183992	-1.2028520421	 0.128602
C	-0.934909117	-0.4693989227	-2.2444978756	-0.142658
O	-1.1297810239	 0.9303376498	-2.3549419884	-0.415996
C	 1.5846071704	-0.7852242708	-1.697972949	-0.125965
O	 1.6918168516	-2.2259758719	-1.6964639	-0.266405
C	 0.3849993107	-2.3743913027	-1.1232454513	-0.119818
H	-2.1937621444	 0.4015240161	 0.1553362132	 0.16833
H	-1.9392839282	-1.2860779911	 0.6122507256	 0.131463
H	-1.5254949418	 0.02371405	 1.7625763089	 0.144408
H	-0.6614647603	-0.9222625983	-3.2097495931	 0.106711
H	-1.908489105	-0.8817016728	-1.959636528	 0.117645
H	-0.3051520361	 1.3292216349	-2.6525180799	 0.292129
H	 1.7378667017	-0.3669545096	-2.7017868866	 0.088955
H	 2.2732029024	-0.3157744222	-0.9902087834	 0.132656
H	 0.4195054755	-2.7917040352	-0.108264792	 0.108347
H	-0.2763498636	-2.9955427453	-1.7420101535	 0.104112
