19
gdb 85308	2.54659	1.61591	1.20784	2.1728	74.68	-0.2349	-0.0088	0.2261	1059.4145	0.160911	-423.042349	-423.034599	-423.033654	-423.074591	30.821	
O	 0.1252210923	 1.1759758836	-0.6997237652	-0.442846
C	 0.0260664745	-0.0613168742	-0.0030694358	 0.120766
C	 0.6136575591	 0.0379371395	 1.4287925825	-0.359402
C	-0.2205238104	-0.6596146835	 2.5116633583	 0.409316
O	 0.2485308066	-0.9880854754	 3.5746835074	-0.329978
C	-1.6626125152	-0.8922535552	 2.1191743827	-0.111169
C	-1.6372749662	-1.7609754005	 0.8172844032	-0.248541
C	-1.4564819613	-0.4339487802	 0.0372926643	-0.007742
C	-2.1726230133	 0.2752071184	 1.2182444444	-0.241886
H	 1.0537827886	 1.4268756962	-0.7368394301	 0.283307
H	 0.5597018152	-0.8472897648	-0.5606917061	 0.07206
H	 1.6464348863	-0.3132972793	 1.4968909612	 0.121415
H	 0.6221287592	 1.1015214544	 1.701072033	 0.139654
H	-2.248199887	-1.2279953144	 2.9747562529	 0.082518
H	-0.8653397172	-2.5317089914	 0.725961326	 0.103857
H	-2.6154055714	-2.2109498165	 0.6336474629	 0.112266
H	-1.8862932491	-0.3500383988	-0.9622514185	 0.077671
H	-3.2592164758	 0.2325141927	 1.1137270001	 0.107821
H	-1.8754422751	 1.2971123693	 1.464129357	 0.110913
