17
gdb 74359	4.67056	0.84963	0.78588	5.0154	73.57	-0.2593	-0.0034	0.2559	1456.4736	0.134532	-458.998348	-458.989516	-458.988571	-459.032845	31.035	
C	 0.1756174279	 1.4278704463	 0.0302312018	-0.495382
C	 0.0714927325	-0.0606877589	-0.0122073869	 0.305949
C	-0.2071619341	-0.8568567868	-1.0419656797	-0.230497
C	-0.1299673049	-2.288173037	-0.6071283474	 0.179457
O	 1.0131226266	-2.8967914302	-1.247948087	-0.197857
C	 1.0352977848	-4.2441066141	-1.2999310617	 0.179136
O	 1.9600001889	-4.8586971891	-1.7392687817	-0.276756
O	 0.0367039334	-2.2557830524	 0.7819255029	-0.25408
C	 0.3124657439	-0.9192067571	 1.2031202018	-0.161973
H	 1.1772213085	 1.7408405677	 0.3492824586	 0.141237
H	-0.0239510614	 1.8711867042	-0.9478491898	 0.137795
H	-0.5317382844	 1.8537802157	 0.7520366611	 0.136605
H	-0.4051111732	-0.5667096997	-2.0647002388	 0.116484
H	-1.0071175419	-2.9057446801	-0.8422283944	 0.096695
H	 0.1100305765	-4.7077365155	-0.906281748	 0.080687
H	 1.3467760962	-0.8319390608	 1.5678068756	 0.122834
H	-0.3567049391	-0.673861232	 2.0382610235	 0.119667
