22
gdb 120255	2.86005	1.00095	0.85878	0.4852	81.58	-0.2281	0.0816	0.3097	1433.6204	0.194016	-404.295805	-404.286231	-404.285287	-404.330524	35.724	
C	-0.3266706216	 1.5856875607	 0.0786414352	-0.410496
C	-0.0141384079	 0.0931805636	 0.0965962854	-0.025265
C	 0.4611041998	-0.5826177541	-1.1908840512	-0.031227
C	 1.8100773611	-0.138428749	-1.5853503267	-0.247002
N	 1.7006932709	-1.1701926753	-0.5356543853	-0.144241
C	 1.2992040837	-0.4644497861	 0.7451915767	 0.031844
C	 2.3270695699	 0.4605588775	 1.3787643601	-0.196613
C	 3.5878804725	-0.2853771125	 1.8020888745	-0.072443
O	 4.4710136624	 0.6582034444	 2.3925046639	-0.42471
H	 0.4924932807	 2.1782032419	-0.3383502106	 0.117115
H	-1.2183547977	 1.7826194794	-0.5267351379	 0.116362
H	-0.5251504123	 1.9583956264	 1.0892618309	 0.118193
H	-0.8736691997	-0.4428470038	 0.5095404841	 0.079889
H	-0.163883752	-1.1796557816	-1.8482971468	 0.090144
H	 2.2155704521	-0.5363902158	-2.5106684728	 0.119045
H	 2.1622453689	 0.859452577	-1.3401804386	 0.112312
H	 1.0537250892	-1.254007472	 1.4627762111	 0.080063
H	 2.6162993125	 1.2743714651	 0.7060824667	 0.104463
H	 1.8843144407	 0.9352457765	 2.263222648	 0.107246
H	 3.3238103598	-1.0846717947	 2.5140675927	 0.083967
H	 4.0420674527	-0.7690501941	 0.924846644	 0.106428
H	 5.2888583241	 0.2037012568	 2.6138717164	 0.284928
