17
gdb 34259	4.09897	1.33719	1.20865	5.3068	76.96	-0.2646	0.0123	0.2769	1039.9067	0.13888	-380.852516	-380.845625	-380.844681	-380.88373	27.547	
N	 0.0741191194	-1.1426652569	-0.063520407	-0.348026
C	 0.0383591139	 0.0133540707	-0.0485284817	 0.194841
C	-0.0593927779	 1.4418229298	-0.0181984828	 0.229534
C	-1.2894571501	 2.2412176452	 0.4496426997	-0.302541
C	-0.7732295777	 3.4426161822	-0.4053185219	-0.05389
C	 0.1001392953	 4.3591275825	 0.4558917161	-0.22166
C	 1.2000513461	 3.3815665462	 0.9479949706	-0.168225
N	 1.1909561587	 2.2303944696	 0.0105194788	-0.12535
C	 0.2537828667	 2.4770600352	-1.0656479671	-0.106555
H	-2.2032175867	 1.8057450062	 0.041142821	 0.129014
H	-1.4118408054	 2.3968516617	 1.5260500497	 0.109165
H	-1.508829511	 3.9384387004	-1.0359207143	 0.086074
H	 0.530179732	 5.1676196269	-0.1446389319	 0.109427
H	-0.4584711402	 4.8119289535	 1.2801596838	 0.110435
H	 2.1971808401	 3.8272227771	 0.9204524766	 0.12208
H	 1.0258440486	 3.0247031363	 1.9665073915	 0.120227
H	 0.5423078381	 2.3635364835	-2.103218191	 0.115448
