14
gdb 27914	2.04001	2.01819	1.01496	2.4634	68.05	-0.2395	0.0134	0.2528	1080.8096	0.104449	-466.292091	-466.284315	-466.283371	-466.324027	29.803	
N	 0.0100277388	 1.3277275703	 0.146612886	-0.555787
C	 0.0121785057	-0.0219268794	 0.0411808132	 0.438892
N	-1.1902947273	-0.6235088151	 0.004080363	-0.361086
C	-1.1065426354	-1.9427413867	-0.0643250798	 0.434581
O	-2.2725073185	-2.5985679836	-0.0998640455	-0.390008
N	-0.0014547725	-2.6879870131	-0.1016971548	-0.425187
C	 1.1304871328	-1.9629846587	-0.0690989748	 0.43416
N	 2.2989577033	-2.6469667936	-0.143252593	-0.556566
N	 1.2058742702	-0.6296456568	 0.0053108276	-0.379132
H	 0.8763510955	 1.8179972384	 0.0112521503	 0.263882
H	-0.8625465549	 1.8092012025	 0.0176257562	 0.267681
H	-2.0454630645	-3.5371796699	-0.1528502946	 0.301012
H	 2.2698794302	-3.6431431517	-0.0138224203	 0.263581
H	 3.1470568168	-2.1489435026	 0.0637675665	 0.263976
