16
gdb 20245	4.01795	2.97061	2.45047	1.3983	72.83	-0.1939	-0.0168	0.1771	639.324	0.132961	-309.364012	-309.358906	-309.357962	-309.392647	22.811	
C	-0.2066250294	 1.3073235685	 0.1091203347	-0.271464
C	 1.3804539019	 1.2387430453	 0.0462520471	-0.021335
C	 2.2060050844	 0.1029879404	 0.7404987458	-0.102919
C	 1.536479034	-1.3128640437	 0.5113568505	-0.074428
C	 0.0950251345	-1.0925549558	 0.3073810244	-0.103221
C	-0.0507206939	-0.0653543321	-0.5649017049	 0.008181
C	 1.3177446957	 0.2942538661	-1.1868592337	-0.061703
C	 2.3526196899	-0.6539703603	-0.5667757416	-0.087768
H	-0.7136284413	 1.3292711291	 1.0756347579	 0.103898
H	-0.5522342474	 2.1372887878	-0.5182571347	 0.09972
H	 1.926446268	 2.1833152424	-0.0142727866	 0.083073
H	 2.9174517747	 0.2284553099	 1.5455108804	 0.091258
H	 1.963206212	-2.1292556444	 1.0842248963	 0.086704
H	-0.6079689938	-1.2742655614	 1.1158128386	 0.091601
H	 1.3700987281	 0.6629450476	-2.2086990265	 0.069463
H	 3.2237500026	-1.0972424493	-1.0292411777	 0.08894
