17
gdb 55153	3.25668	1.36522	1.26118	2.1118	67.56	-0.2293	-0.0248	0.2045	1058.3271	0.134034	-458.948753	-458.940399	-458.939455	-458.982551	30.595	
C	-0.0469863198	 1.4612306729	-0.127893241	-0.486319
C	-0.2278171442	 0.0117128729	-0.5188240487	 0.37825
O	 0.5076913122	-0.578225609	-1.2697407902	-0.289799
C	-1.4851366549	-0.6620426623	 0.0958010206	 0.098548
O	-2.6183230478	-0.1653294255	-0.6221684303	-0.279304
C	-3.1541661995	-1.2379687361	-1.3648378674	 0.062651
C	-2.2615303896	-1.9410742592	-2.3694426558	-0.356929
C	-2.4152918882	-2.4634435454	-0.9581801528	 0.073458
O	-1.4579640049	-2.0598573528	-0.005647657	-0.24741
H	 0.7710957072	 1.9051260181	-0.6955350668	 0.145773
H	-0.977610832	 2.0105451529	-0.3058537042	 0.158645
H	 0.1685451385	 1.5347458025	 0.9448223304	 0.143988
H	-1.582742507	-0.3740642838	 1.1538559731	 0.096437
H	-4.2267322424	-1.1587085039	-1.4884971133	 0.114862
H	-2.7652420214	-2.4979082111	-3.1535001298	 0.117574
H	-1.313022412	-1.4956203733	-2.642871115	 0.156108
H	-2.8549755343	-3.4247715568	-0.7251565517	 0.113468
