16
gdb 14697	6.94266	0.59824	0.57087	1.8573	71.14	-0.2479	-0.0284	0.2195	1853.8259	0.127197	-383.715497	-383.705789	-383.704845	-383.753033	31.654	
O	-0.0340354604	 1.3556888119	 0.3968122189	-0.414547
C	-0.0978847534	-0.0592967033	 0.4178905745	-0.06354
C	-1.2132181528	-0.4668608025	-0.5517569807	-0.32411
C	-1.3911599923	-1.9107813443	-0.6283123462	 0.050828
C	-1.5104212578	-3.1076591216	-0.6890939323	 0.05396
C	-1.690817224	-4.5519880755	-0.7116402204	-0.413014
C	-2.4517060367	-5.0608769283	 0.5147719676	 0.171382
O	-2.1937037635	-6.0875624971	 1.081091899	-0.230851
H	 0.6598977005	 1.6367858763	 0.9999490977	 0.290565
H	 0.8499206525	-0.5166081267	 0.0971120472	 0.099747
H	-0.3288108212	-0.4436189279	 1.4225617423	 0.09942
H	-2.1441121479	 0.0162119706	-0.2308948116	 0.139613
H	-0.9785182044	-0.0574756864	-1.5418387042	 0.140304
H	-2.2823666376	-4.8461962736	-1.5927306005	 0.154663
H	-0.7412000508	-5.0936556566	-0.7729767003	 0.152814
H	-3.2853615003	-4.4006799451	 0.839146189	 0.092765
