16
gdb 32296	2.73753	1.52482	0.9863	0.395	78.39	-0.1951	-0.0215	0.1736	1147.7333	0.126918	-434.13653	-434.128451	-434.127507	-434.169423	29.829	
C	 0.0054734819	 1.4263971247	 0.1312928361	-0.322851
N	-0.0503991824	 0.0047823134	-0.096023731	-0.357195
C	 0.59959506	-0.6151129223	-1.1202330465	 0.197626
C	 1.2312174219	-0.015379817	-2.1832684002	-0.117862
N	 1.8384411832	-0.7094535337	-3.2011754531	-0.263996
C	 1.8178108174	-1.9967915664	-3.1346560684	 0.075967
N	 1.22791198	-2.6843248505	-2.104278776	-0.347852
C	 0.5903972644	-2.0773089449	-1.0332667224	 0.399939
O	 0.0864678029	-2.714426038	-0.1176596077	-0.412649
H	 1.0356548447	 1.7932760036	 0.2574813055	 0.124138
H	-0.4449296351	 1.9773839422	-0.7043876516	 0.133694
H	-0.5593491873	 1.666352041	 1.0338313259	 0.133506
H	-0.3159766008	-0.6178172322	 0.6521584274	 0.26075
H	 1.2721205912	 1.0650982114	-2.2684063228	 0.102456
H	 2.2779409472	-2.6038018283	-3.9078551955	 0.128993
H	 1.2443304307	-3.6954667131	-2.0841744697	 0.265337
