16
gdb 9178	7.59548	0.93682	0.84272	3.4361	68.21	-0.2429	0.003	0.2459	1351.762	0.12886	-417.093862	-417.084561	-417.083617	-417.128754	30.773	
C	 0.3200184102	 1.3256481692	 0.0507137974	-0.23366
O	-0.0044112354	-0.055068301	-0.1322964505	-0.27048
C	-1.323727696	-0.3471614988	 0.0281733549	 0.537749
O	-2.1767721886	 0.4515074495	 0.2994128461	-0.364615
N	-1.4726049868	-1.7082779889	-0.1789811249	-0.406973
C	-2.6367746679	-2.4688940593	-0.1232583562	 0.099387
N	-3.7856401833	-2.0206789971	 0.1353279673	-0.165001
C	-4.8782791378	-2.9681247515	 0.1478150095	-0.310188
H	 1.395518012	 1.3998714299	-0.1120593381	 0.131254
H	-0.2184798196	 1.9492638876	-0.6674238981	 0.142809
H	 0.0638244098	 1.6537825896	 1.061361354	 0.142579
H	-0.6208245313	-2.1991382168	-0.3973439402	 0.262652
H	-2.4227927731	-3.5274947693	-0.3370564914	 0.08259
H	-4.5754533793	-4.0052978204	-0.0764404835	 0.090879
H	-5.3636108272	-2.9544181067	 1.1304596585	 0.130507
H	-5.6357172057	-2.6632709459	-0.5833960348	 0.13051
