16
gdb 127245	4.58754	0.86562	0.78656	4.1475	73.35	-0.2447	-0.0249	0.2198	1429.5681	0.12374	-434.077469	-434.068689	-434.067745	-434.113321	29.756	
C	 0.1832102329	 1.4430899426	-0.117130898	-0.332685
N	-0.0157169078	 0.0070961752	-0.1021900985	 0.084845
C	 0.1346406563	-0.8901677899	-1.1039151314	-0.184502
C	-0.2033209365	-2.1005951606	-0.5382366708	 0.276945
C	-0.1973516839	-3.4758315133	-1.1283159259	-0.374104
C	 1.1748697155	-4.1269744123	-1.0040087558	 0.155803
O	 1.7773862033	-4.6223758377	-1.9191992956	-0.235058
N	-0.5303246655	-1.8767289644	 0.7671389054	-0.246604
N	-0.4189134231	-0.6058970095	 1.0280119568	-0.142765
H	 1.2146141293	 1.6853395343	-0.386411613	 0.151758
H	-0.4978482426	 1.9196669564	-0.8273418385	 0.15133
H	-0.0264406514	 1.8063216364	 0.8886577848	 0.17458
H	 0.449125148	-0.6075984757	-2.0947804125	 0.151113
H	-0.9080027283	-4.0925627528	-0.5641490329	 0.14798
H	-0.4875403124	-3.4786464086	-2.1816184841	 0.127165
H	 1.5926637862	-4.1032693401	 0.0269091	 0.094199
