19
gdb 126612	4.31149	0.8434	0.74542	2.35	79.3	-0.2116	0.0293	0.2409	1550.7677	0.160283	-419.238319	-419.229337	-419.228393	-419.272968	32.997	
C	-0.0102071271	 1.5069055748	 0.0384561505	-0.381316
C	-0.0996127262	-0.0160962022	-0.0791746058	-0.167628
C	 0.8027525106	-0.5621191782	-1.1916026343	-0.141036
N	 0.7649711322	-2.0070840565	-1.2961687217	 0.050134
C	 0.1632091824	-2.7671819813	-2.2387390662	-0.012413
C	 0.3416862024	-4.0906089805	-1.8875451946	-0.33949
C	 1.0776408284	-4.015212057	-0.6878422188	 0.442821
O	 1.5035657135	-5.0676508888	 0.0426215663	-0.429624
N	 1.3351050771	-2.7664157108	-0.3223382163	-0.383131
H	 1.0126634111	 1.8291009124	 0.2626134429	 0.120085
H	-0.3164238465	 2.0001304686	-0.891136621	 0.114567
H	-0.6573302671	 1.8774937208	 0.8384598114	 0.120519
H	 0.1933770379	-0.4908006241	 0.8626489355	 0.126863
H	-1.1333872647	-0.3223287908	-0.2788458279	 0.103277
H	 0.5029501648	-0.1590849373	-2.1644686375	 0.113528
H	 1.8411397154	-0.2610891033	-1.0139929668	 0.124217
H	-0.3376857074	-2.3175450551	-3.0823628955	 0.128104
H	 0.008184054	-4.9705950681	-2.4101865901	 0.109194
H	 1.9822443394	-4.7078364328	 0.7997266601	 0.301329
