21
gdb 59894	2.44791	0.90367	0.76161	2.0448	84.72	-0.2445	-0.0181	0.2264	1594.4963	0.178111	-387.086124	-387.075235	-387.074291	-387.123321	39.066	
C	-0.0986502034	 1.0399438612	 0.9470794769	-0.396725
C	 0.0285673425	-0.1790273349	 0.0241534735	 0.048472
C	 1.365720869	-0.9005118495	 0.2438882118	-0.388827
C	-1.1620485677	-1.1275921857	 0.222282024	-0.298152
C	-1.3462009542	-2.1618914535	-0.8712891083	 0.37508
O	-0.6414434506	-2.2347254757	-1.8489595859	-0.294094
C	-2.5570409183	-3.1172955459	-0.7467992956	-0.438182
C	-2.8953807483	-3.5526320775	 0.5991632628	 0.301106
C	-3.1658775622	-3.9178036377	 1.7119141624	-0.452521
H	 0.7372625124	 1.7311378306	 0.7984238788	 0.113197
H	-1.0267724251	 1.5916458141	 0.761768406	 0.107824
H	-0.0952582333	 0.7395425206	 2.0018856447	 0.111636
H	 0.0017801231	 0.1669461954	-1.0163467626	 0.089773
H	 2.2062510299	-0.2192039302	 0.0764327295	 0.109957
H	 1.4433945807	-1.2744204774	 1.2724347472	 0.105188
H	 1.4746586436	-1.7452755536	-0.439583788	 0.134645
H	-1.0947049945	-1.6567917915	 1.1821106523	 0.137041
H	-2.1068321377	-0.5664343386	 0.2855807318	 0.118195
H	-3.4117986634	-2.5832340536	-1.1877639796	 0.155625
H	-2.3549200149	-3.9696514505	-1.4026235495	 0.158209
H	-3.4071336976	-4.2433809159	 2.6934890176	 0.202553
