17
gdb 38271	3.21301	1.75401	1.43492	0.6081	67.51	-0.2444	0.0655	0.31	917.2992	0.137739	-458.871838	-458.865349	-458.864405	-458.902415	26.894	
C	-0.0445013492	 1.635130019	 0.1057484409	-0.261352
C	 1.4180202125	 1.1830436982	-0.0235502333	-0.025968
O	 1.1220378172	 0.0399597952	 0.9089350322	-0.366527
C	-0.0061918653	 0.0905453297	-0.0444562656	 0.41514
C	-1.1478638126	-0.8388364611	-0.3303027274	-0.233635
O	-1.6027310347	-0.391831355	-1.6215697587	-0.251678
C	-0.6086997059	-0.3543914037	-2.6222209909	 0.024176
O	 0.4306006759	 0.5906738801	-2.388471495	-0.260454
C	 1.0231677358	 0.2124404133	-1.1684665078	 0.09354
H	-0.3309856824	 1.9921784941	 1.0953023545	 0.105709
H	-0.4728379293	 2.2096386399	-0.7142511573	 0.124305
H	 2.3467118058	 1.7239108042	 0.1542319516	 0.100778
H	-0.8116695872	-1.8858466135	-0.3674168225	 0.111093
H	-2.0033514139	-0.755438465	 0.3436112692	 0.125066
H	-0.1628312845	-1.3580985848	-2.741892018	 0.087602
H	-1.111463669	-0.0456845326	-3.5392207571	 0.127761
H	 1.6961373667	-0.6465240981	-1.2743774049	 0.084445
