18
gdb 96691	2.43546	1.25992	0.84716	2.416	83.9	-0.2309	-0.0853	0.1456	1344.9559	0.145423	-435.264589	-435.254172	-435.253228	-435.301485	35.133	
C	 0.3197038397	 1.3814842798	-0.037856531	-0.335632
N	 0.1034985061	-0.0550950096	-0.0077510869	-0.28088
C	-1.0580807889	-0.5956856015	-0.013784748	 0.299488
C	-2.3149562095	 0.2464887424	-0.0327487568	 0.09778
O	-3.4225493608	-0.0816700416	 0.3152068579	-0.253526
N	-1.1300733442	-1.9839617643	 0.0526096783	-0.124558
C	 0.1373166198	-2.7021313219	 0.2033952087	-0.329834
C	-2.2981933527	-2.7191597067	-0.1303101769	 0.0755
N	-2.2852552685	-3.9932511554	-0.1442038158	-0.472563
H	-0.0375857496	 1.8489834747	-0.9659305035	 0.128663
H	-0.1422630082	 1.9105147265	 0.8056841101	 0.128938
H	 1.3963455216	 1.5622336593	 0.0181322404	 0.134995
H	-2.1192420698	 1.27911815	-0.3741852071	 0.112194
H	 0.6711003471	-2.3201460052	 1.0756281164	 0.137652
H	-0.0967199153	-3.7577947327	 0.314350487	 0.169084
H	 0.7726140199	-2.5426661982	-0.6722974936	 0.136116
H	-3.1828448834	-2.100383694	-0.2404382656	 0.148467
H	-3.2314847034	-4.3417935015	-0.2810314834	 0.228116
