19
gdb 126902	3.19946	1.0016	0.7808	4.1205	80.36	-0.1998	0.0013	0.201	1473.0462	0.158801	-419.201823	-419.192304	-419.19136	-419.237629	33.592	
C	-0.1313598146	 1.5221877403	 0.0150242088	-0.398902
C	-0.1785979127	 0.0062137632	 0.1708996404	-0.117634
N	 0.9349616155	-0.4569330756	 0.9979860132	-0.412432
C	 1.0090011761	-1.8199446886	 1.2925459638	 0.105108
C	 1.5005605469	-2.4334421156	 2.4126135236	 0.344448
C	 2.0636758792	-1.9249843463	 3.6909405979	-0.504096
O	 1.4506007522	-3.7776238117	 2.2469608977	-0.21143
N	 0.9061945462	-4.0744587759	 1.0124184347	-0.146677
C	 0.6508949786	-2.9159724997	 0.4536199296	-0.016335
H	 0.8203517989	 1.8374581021	-0.4221629494	 0.13245
H	-0.9436671885	 1.8678421055	-0.6299772174	 0.124692
H	-0.243110008	 2.0220211957	 0.9844140649	 0.115728
H	-1.1557350655	-0.3022528911	 0.5795314686	 0.095995
H	-0.0879640674	-0.463487912	-0.8153871022	 0.116128
H	 1.0460944902	 0.1159901054	 1.8253487055	 0.224966
H	 1.6935302836	-0.9164734125	 3.9015590209	 0.125679
H	 1.7722105015	-2.5734449945	 4.5221491103	 0.151665
H	 3.1592802308	-1.8790782298	 3.6717777619	 0.14742
H	 0.214013957	-2.8956968891	-0.5342548229	 0.123227
