20
gdb 90350	3.08172	1.42109	1.12064	3.7027	79.83	-0.2379	0.0318	0.2697	1143.2742	0.17334	-403.158969	-403.151042	-403.150097	-403.191281	31.122	
C	-0.3439093577	 1.4646568098	-0.2185876509	-0.394933
C	 0.0226898348	 0.0117855247	-0.0079873896	 0.078915
O	 1.2477863495	-0.3445734	-0.7652012543	-0.284155
C	 1.9411102618	-0.4784431321	 0.4119588538	 0.441236
N	 3.1761327469	-0.4119905851	 0.611250787	-0.308505
C	 3.5454909646	-0.2865226528	 2.0298278873	-0.146738
C	 2.3911301435	-0.2357800697	 3.0714010082	-0.212017
C	 1.0975751761	 0.4232101833	 2.534357414	-0.247484
C	 0.7381499488	-0.4107779313	 1.308571929	-0.14488
H	 0.4815618116	 2.1268830172	 0.0566795377	 0.13279
H	-0.5883659016	 1.6442791224	-1.2694436651	 0.135814
H	-1.2186951962	 1.7250536576	 0.3865851785	 0.122752
H	-0.7932030544	-0.6525093029	-0.3060883004	 0.091308
H	 4.230929073	-1.1011305965	 2.2913897869	 0.110326
H	 4.1401059262	 0.6337163859	 2.1020143949	 0.111339
H	 2.1413340145	-1.2552714489	 3.3907642557	 0.103279
H	 2.7490031806	 0.2888112347	 3.963163184	 0.100172
H	 0.3148861821	 0.4235715645	 3.2990439189	 0.099518
H	 1.2878879489	 1.465615875	 2.2545959974	 0.107641
H	 0.399140737	-1.4049261559	 1.6164612867	 0.103621
