19
gdb 67801	2.3195	1.94403	1.57271	1.203	79.52	-0.2178	0.0184	0.2362	960.8431	0.159521	-385.862175	-385.854369	-385.853425	-385.893706	31.919	
C	-0.0682542578	 1.522983757	-0.059735599	-0.521213
C	-0.0265475458	 0.0294760539	 0.0210300291	 0.312007
C	 0.4126215103	-1.03855476	-0.9680678914	-0.182151
C	 1.280594001	-1.7113981878	 0.0808601749	-0.231035
C	 0.5072369611	-0.8807767525	 1.1862981761	-0.164445
C	-0.6843039451	-1.7049030242	 1.6186816963	-0.092236
C	-1.555735401	-1.7736017975	 0.6066964135	-0.152469
C	-1.0715698019	-0.9111302222	-0.5106184714	 0.333715
O	-1.9575249717	-0.4051909961	-1.4609592919	-0.487522
H	 0.9354474305	 1.9605595899	-0.0155911239	 0.113724
H	-0.536856181	 1.8323233428	-0.9984342852	 0.136047
H	-0.6555993531	 1.9461199274	 0.7636231364	 0.122883
H	 0.631540886	-0.9306093961	-2.0253799467	 0.079672
H	 1.2589617588	-2.8022980832	 0.1776395398	 0.088433
H	 2.3160992856	-1.3702045277	-0.0037093813	 0.102152
H	 1.1157061699	-0.4381438543	 1.9742254618	 0.068835
H	-0.7184774698	-2.2735728632	 2.5399093397	 0.095027
H	-2.4581302115	-2.3698500128	 0.5502176356	 0.093243
H	-2.0496809446	-1.0546733034	-2.1654469522	 0.285333
