18
gdb 115179	2.55887	1.31343	1.02197	2.8865	67.13	-0.2454	0.0097	0.2551	1181.133	0.148585	-476.25073	-476.241682	-476.240738	-476.284757	32.811	
N	 0.3286657961	 1.2194569019	 0.6553604862	-0.517079
C	 0.0078225044	-0.0365237962	-0.0045794505	-0.146152
C	-1.4599685075	-0.4948945057	 0.0641045025	-0.015677
C	-2.4560895018	 0.6557996139	-0.063067792	-0.102136
O	-3.7556907957	 0.0843744412	-0.0608262122	-0.421737
C	-1.5245728097	-1.4406704101	-1.1468156157	-0.095069
O	-0.5945243423	-0.9099004565	-2.1186393183	-0.223135
C	 0.2981896059	-0.0882709493	-1.5150929955	 0.415736
O	 1.1553266165	 0.5006221958	-2.1105760241	-0.350139
H	 1.3373258104	 1.3426619796	 0.6392919389	 0.245593
H	-0.0339329674	 1.9959234169	 0.1077838684	 0.236979
H	 0.6287365325	-0.8189569104	 0.4521420479	 0.117287
H	-1.6815066598	-1.0313849465	 0.9896692848	 0.098428
H	-2.3169319092	 1.3472322851	 0.7789587838	 0.112016
H	-2.2719929685	 1.2161135256	-0.9954591094	 0.095251
H	-4.3992411834	 0.7920643517	-0.1577668306	 0.292362
H	-1.2144959541	-2.4595380842	-0.889651044	 0.114527
H	-2.5123862265	-1.4712355029	-1.6070158001	 0.142944
