21
gdb 104308	2.76564	1.33238	1.27415	2.0696	77.68	-0.2504	0.0846	0.3349	1140.6374	0.181527	-424.220459	-424.211499	-424.210555	-424.25376	34.418	
C	 0.1439936224	 1.4807647319	 0.2202681115	-0.393521
C	 0.0306326315	-0.0252262015	-0.0347708211	-0.198512
C	 0.6492589874	-0.4983040813	-1.3583301562	 0.361492
C	-0.0462676283	 0.0784628406	-2.5984890486	-0.435577
O	 2.040747225	-0.1107107061	-1.3443832634	-0.30422
C	 2.8601176809	-1.1208962811	-1.9169972933	-0.118236
C	 2.0641223446	-2.4011921092	-1.8084799605	 0.024788
O	 1.55265414	-2.6273564529	-0.4892680966	-0.258346
C	 0.696748657	-2.0184393107	-1.4607029124	-0.011828
H	 1.1880053088	 1.7999757808	 0.1701863419	 0.13688
H	-0.4257199072	 2.0659874205	-0.5086370824	 0.110289
H	-0.2424136433	 1.7297594361	 1.2132325658	 0.109785
H	 0.5369404592	-0.5740848656	 0.7651697851	 0.118792
H	-1.0232397709	-0.3315656089	-0.0174778302	 0.087095
H	 0.0581657248	 1.1653277134	-2.6217820824	 0.132862
H	 0.3966438888	-0.3227247234	-3.5157005669	 0.113734
H	-1.1138465287	-0.1665948082	-2.6022008785	 0.114292
H	 3.0876683745	-0.9168634869	-2.9762249882	 0.0937
H	 3.8036562736	-1.1467329313	-1.3608951186	 0.117608
H	 2.3248899771	-3.2837423848	-2.3861700202	 0.101836
H	-0.1865711272	-2.5825736815	-1.7487297548	 0.097087
