23
gdb 72789	2.49998	1.61396	1.23438	0.2851	92.05	-0.2244	0.0323	0.2567	1137.5365	0.207911	-351.166641	-351.158322	-351.157378	-351.198819	34.17	
C	-0.0749378621	 1.5431977265	-0.0943934533	-0.445251
C	-0.0316573881	 0.0117407312	 0.0137603787	 0.295756
C	 1.1585088136	-0.5668809236	-0.8334815033	-0.281776
C	 2.0314406777	-0.6063497465	 0.4679707076	-0.321742
C	 0.7228933354	-0.5158391196	 1.2247217313	 0.314834
C	 0.1861089509	-1.1064306445	 2.284333922	-0.231411
C	-1.3123047202	-1.1768301471	 2.4609150179	-0.230742
C	-2.1022630759	-0.47702886	 1.3317767129	-0.209972
C	-1.4304801756	-0.6111789404	-0.051698788	-0.277938
H	 0.9135614513	 1.9865176974	 0.0620210784	 0.112246
H	-0.4209651649	 1.8413596063	-1.0912115737	 0.109927
H	-0.751608047	 1.9840760651	 0.6437037555	 0.116099
H	 0.9452355173	-1.57332428	-1.202416515	 0.100626
H	 1.5208460567	 0.0518608968	-1.6590449575	 0.091782
H	 2.651632473	-1.4896877901	 0.6398351946	 0.1041
H	 2.6629631084	 0.2834749599	 0.562140478	 0.106931
H	 0.8031195174	-1.6423053285	 3.0034678819	 0.076038
H	-1.5940085806	-2.2397961115	 2.5052817154	 0.102878
H	-1.6141285657	-0.7624643546	 3.4322269423	 0.101256
H	-3.1195681104	-0.8810652001	 1.2971625122	 0.091032
H	-2.2080817036	 0.5872737007	 1.5718491697	 0.101657
H	-2.0536954618	-0.1384882947	-0.8207080105	 0.084981
H	-1.344998576	-1.6733521127	-0.313267507	 0.088691
