16
gdb 3228	5.17681	2.71535	2.32301	1.5344	63.58	-0.216	0.0775	0.2935	642.5024	0.137042	-288.555445	-288.549299	-288.548355	-288.584842	24.701	
C	 0.0487405529	 1.484772478	 0.0513025721	-0.479399
C	-0.101472126	-0.0037122894	-0.0486894953	 0.345221
C	-0.967173747	-0.8185334161	 0.8295073883	-0.294032
N	 0.5040715882	-0.9347059001	 0.9721890483	-0.181385
C	 1.081026876	-1.7329302138	-0.1819006788	 0.011689
C	 0.142557422	-2.2469755512	-1.2360986774	-0.305002
C	 0.5260785379	-0.791385339	-1.2238755435	-0.124676
H	 1.0703139868	 1.7915518357	-0.1999288191	 0.123246
H	-0.635459779	 1.9929527609	-0.6388743463	 0.119357
H	-0.1686158167	 1.8286750351	 1.0663829115	 0.127269
H	-1.4080739428	-0.3106135022	 1.6831552011	 0.117784
H	-1.5615653685	-1.6490653871	 0.4668206241	 0.116215
H	 2.0800045785	-2.1257845798	-0.0429958874	 0.101684
H	 0.6538035707	-2.8210190251	-2.0037793616	 0.116603
H	-0.8639309284	-2.5999165897	-1.0418788983	 0.114107
H	 1.0264678053	-0.3034962466	-2.0500908978	 0.09132
