20
gdb 8402	3.63238	1.6367	1.43317	1.4024	74.94	-0.2568	0.0725	0.3293	965.1435	0.177293	-348.957227	-348.949251	-348.948307	-348.989481	31.075	
C	 0.0451206094	 1.5294801021	-0.0590449905	-0.406998
C	-0.0196173197	 0.0011931205	-0.0313378143	-0.017911
O	 0.7409600699	-0.5339413433	 1.0514030306	-0.427832
C	-1.4372807027	-0.5248023182	 0.0023476693	 0.371041
C	-2.5883462726	-0.2692469388	-1.0211881002	-0.264916
C	-3.192426642	-1.2036520125	 0.0644516724	-0.045623
C	-1.8728573341	-2.0217858347	 0.0000182337	-0.254091
C	-2.5045691076	-0.302691381	 1.1287343535	-0.268248
H	 1.0870291456	 1.8601680466	-0.0621023811	 0.12292
H	-0.4522174606	 1.9320706816	-0.9471443476	 0.118887
H	-0.4476876706	 1.9558996681	 0.8231028853	 0.108012
H	 0.472364084	-0.3937373397	-0.9296851407	 0.086694
H	 0.3294522085	-0.2292067712	 1.8679968024	 0.276807
H	-2.9868167997	 0.7482848289	-1.0713316172	 0.087953
H	-2.4561155526	-0.6963922538	-2.0196780158	 0.088737
H	-4.2095716001	-1.5946109026	 0.1012404671	 0.071119
H	-1.6849109448	-2.5812151666	-0.9211673255	 0.086619
H	-1.6072363036	-2.6063846511	 0.8842414075	 0.092773
H	-2.2999253815	-0.765811767	 2.099113461	 0.085599
H	-2.9004444251	 0.7106600726	 1.2434965001	 0.088459
