14
gdb 16603	3.19712	2.30353	1.52937	4.9289	61.96	-0.2316	-0.082	0.1496	804.4733	0.10766	-382.565752	-382.559209	-382.558264	-382.596613	24.882	
O	 0.0143560861	 0.0037202409	-0.2149559893	-0.273687
C	-0.0471232169	 1.1798952058	 0.0120518815	 0.290079
C	-1.3006524562	 2.021300059	 0.2484141789	-0.34063
C	-0.8005637859	 3.3650142186	 0.7639107813	-0.050758
C	 0.033881199	 3.326795021	 1.997439379	-0.288792
C	 0.7229154788	 3.4259796206	 0.6339192185	-0.150251
C	 1.1919054211	 2.136840378	 0.0683617136	 0.329669
O	 2.284071264	 1.8458457233	-0.3438115447	-0.300081
H	-1.8094679679	 2.1342893423	-0.7172473017	 0.145196
H	-1.9959687009	 1.5132118848	 0.9232759459	 0.139884
H	-1.3831161763	 4.2534803914	 0.5526014568	 0.107322
H	 0.0968174148	 4.2188317524	 2.6097068565	 0.137424
H	 0.1120018622	 2.398204379	 2.5555703486	 0.134856
H	 1.2618685282	 4.3329459529	 0.3935043949	 0.119768
