15
gdb 78797	2.77118	1.80274	1.35294	4.2597	64.73	-0.2466	0.0017	0.2483	929.6816	0.112142	-453.886857	-453.879051	-453.878106	-453.918793	29.995	
N	-0.1526954732	 1.5381886076	-0.0404616806	-0.644594
C	-0.1289796311	 0.1347171653	-0.0409640262	 0.206767
C	-1.3306564184	-0.9379321107	 0.0652123337	-0.085779
C	-0.4877814916	-1.8425631803	-0.713124959	-0.078573
C	 0.3836962235	-0.698955982	-1.2541043336	 0.053695
O	-0.1156032834	-0.1143811836	-2.4349541925	-0.433444
N	-0.3657216847	-1.8747169596	 0.7918546121	-0.213119
C	 0.4128689339	-0.6827607966	 1.1145782639	 0.398043
O	 1.0605503481	-0.4420104592	 2.0858188683	-0.328333
H	 0.459831882	 1.9298084903	 0.6646949818	 0.253401
H	 0.0481804288	 1.9282568125	-0.9529343607	 0.250036
H	-2.3733537057	-0.8823008964	 0.3380495105	 0.129654
H	-0.7277728628	-2.7889087437	-1.1811638763	 0.114567
H	 1.4698821317	-0.8611689938	-1.3146857104	 0.082279
H	 0.2210532629	-0.6061854797	-3.1904618309	 0.295399
