20
gdb 38435	3.75153	1.3007	1.18866	1.4559	84.63	-0.2238	0.0254	0.2492	1112.6547	0.173217	-365.976907	-365.969426	-365.968481	-366.008874	30.337	
C	 0.0311814114	 1.575203473	 0.0436393328	-0.303116
C	 1.5514447791	 1.5457832019	-0.1213206968	-0.033773
N	 2.0769594656	 0.8124240412	 1.0579265315	-0.338828
C	 1.5665302091	 0.0608414305	-0.1155586208	-0.114401
C	 0.0257070386	-0.0058132046	 0.035030689	 0.362285
C	-0.5646327439	-0.7685261036	 1.243782301	-0.287071
C	-1.1993232246	-2.0617561749	 0.6691911541	-0.265898
C	-1.3176724256	-1.7568650383	-0.8052333454	-0.078772
C	-0.6632806887	-0.6464768361	-1.1415583557	-0.139571
H	-0.3275706115	 2.0515030518	 0.9600379773	 0.10218
H	-0.4962290825	 1.9912264092	-0.8185024782	 0.10053
H	 2.1773882855	 2.2486198857	-0.6570542814	 0.088697
H	 3.0943951241	 0.8178158733	 0.9823990692	 0.224988
H	 2.2004465275	-0.6405524853	-0.6462778162	 0.08353
H	 0.1896579732	-0.9509508139	 2.01175744	 0.113555
H	-1.3454862101	-0.1532448988	 1.7029369095	 0.10099
H	-0.5640329939	-2.9438988879	 0.8316886037	 0.104583
H	-2.1647213649	-2.296596	 1.1321847127	 0.101661
H	-1.8537146398	-2.3982474062	-1.4969638091	 0.09012
H	-0.5778621685	-0.2453586471	-2.146584487	 0.08831
