15
gdb 51683	3.50147	1.16421	0.91469	6.0079	69.67	-0.2556	-0.0699	0.1857	1206.9698	0.112083	-457.81363	-457.805618	-457.804674	-457.847192	28.45	
O	-0.1639523018	 0.0643323382	-0.0835980267	-0.272161
C	-0.0826003477	 1.2539683494	-0.0819276461	 0.181123
O	 1.094054134	 1.890623241	 0.1409151965	-0.189222
C	 1.0994620626	 3.3078390121	 0.0195367692	-0.002263
C	 2.3699983477	 3.9121365526	 0.6302037827	-0.305141
C	 2.8684072661	 4.8491083297	-0.4431271184	-0.052442
C	 2.1843076616	 4.7628575437	-1.5923378355	-0.165364
C	 1.1199485755	 3.7504171337	-1.467446002	 0.373698
O	 0.3857595518	 3.3026571118	-2.3148347943	-0.322828
H	-0.9278375793	 1.9474007087	-0.2332464821	 0.093613
H	 0.1983639613	 3.7303729975	 0.4832974119	 0.116273
H	 2.1920940228	 4.4296141675	 1.5783055081	 0.129647
H	 3.1006262431	 3.1206189432	 0.8324545154	 0.155823
H	 3.7133269261	 5.5071037272	-0.270725223	 0.129313
H	 2.3747524161	 5.3058218539	-2.5085943058	 0.129933
