23
gdb 121807	3.32019	0.77985	0.74169	1.0013	89.41	-0.2559	0.0561	0.312	1682.8869	0.201416	-388.260625	-388.249139	-388.248195	-388.297349	41.507	
C	-0.0423502589	 1.5023165265	 0.0105817949	-0.38628
C	-0.0100107543	-0.0164868361	 0.0019792649	-0.027743
O	-1.3397715019	-0.4961476405	 0.0122264258	-0.253883
C	-1.4294175985	-1.9025976947	 0.005469632	-0.057116
C	-2.920708549	-2.3111525689	 0.0175268416	 0.041023
C	-3.602422083	-1.7692919293	 1.2943114559	-0.402518
C	-3.6266862554	-1.7555228556	-1.2400065745	-0.402515
C	-2.9744609693	-3.7762453857	 0.0100711889	 0.328911
C	-3.008062919	-4.9782589755	 0.0038728328	-0.492459
H	 0.9748351175	 1.9051291822	 0.0029047151	 0.115802
H	-0.5721998778	 1.8799701624	-0.8685322218	 0.126708
H	-0.5549966116	 1.8703040931	 0.9038804632	 0.126707
H	 0.5195966178	-0.3884968656	-0.8913214611	 0.087534
H	 0.5367421641	-0.3981685794	 0.8807518598	 0.087533
H	-0.9402080934	-2.3191277219	-0.8900123126	 0.092437
H	-0.9232018121	-2.3287524837	 0.886860311	 0.092439
H	-3.5140503673	-0.6811165925	 1.3250445481	 0.130445
H	-4.6608303212	-2.0425400384	 1.308816233	 0.118033
H	-3.1322554612	-2.1827608428	 2.1913270114	 0.11714
H	-3.1738440815	-2.1591926065	-2.1503009824	 0.117138
H	-4.6852126817	-2.0286840463	-1.2371971119	 0.118032
H	-3.5387807147	-0.6670709552	-1.2606100385	 0.130445
H	-3.0445287278	-6.0394292657	-0.0016588855	 0.192188
