18
gdb 58550	2.11306	1.46805	1.43749	2.4505	68.03	-0.2444	0.0107	0.2551	1059.2852	0.14578	-476.237197	-476.227587	-476.226643	-476.271418	35.407	
C	-0.0145647927	 1.5666615342	 0.0086643237	-0.424038
C	-0.0128310332	 0.040017783	 0.0064707336	 0.08813
O	 0.7133315782	-0.4965456599	 1.1077851081	-0.438949
C	-1.4366538819	-0.5386178522	-0.0084121209	 0.264107
O	-2.1049833629	-0.0082104438	-1.1226371712	-0.476997
C	-1.5293015624	-2.0909994298	 0.2049481857	-0.226176
N	-2.2492016259	-1.8079669959	 1.4538206175	-0.313621
C	-2.1526616218	-0.4431706821	 1.3854589984	 0.326712
O	-2.4665890936	 0.4438543796	 2.1384194465	-0.369182
H	 1.0142931392	 1.9356162067	 0.0391927788	 0.117508
H	-0.5068426151	 1.9532126314	-0.8855385127	 0.13899
H	-0.5571954476	 1.9449013933	 0.8818953279	 0.140111
H	 0.5024859392	-0.3285331396	-0.8889550491	 0.097982
H	 0.4619121829	 0.0051507023	 1.892123238	 0.292105
H	-3.0464509749	-0.1944607715	-1.0453006167	 0.29229
H	-2.1268858291	-2.6115994725	-0.5491472575	 0.105278
H	-0.5661130814	-2.5855995402	 0.349820225	 0.132603
H	-2.453659367	-2.4012381131	 2.2448856249	 0.253145
