17
gdb 54663	3.37021	1.36521	1.04405	3.0008	74.25	-0.2468	-0.0637	0.1831	1140.3669	0.135978	-418.008135	-417.999953	-417.999009	-418.041652	29.947	
C	 0.0994002264	 1.2735659309	 0.4139050328	-0.47612
C	 0.0786741238	-0.2363708231	 0.3489593736	 0.331112
O	 1.0750319055	-0.9203176517	 0.3683821765	-0.279887
C	-1.277730129	-0.8856315519	 0.2338831765	 0.224705
N	-2.3454029016	-0.2151873284	 0.0269463919	-0.255646
C	-3.4556719193	-1.1766024785	-0.084236882	-0.197323
C	-2.7963460744	-2.5514844522	 0.0224442656	-0.036722
C	-1.7423169379	-2.9104027811	-0.9564873332	-0.246974
N	-1.369817899	-2.3063788434	 0.3490694438	-0.130645
H	 1.1336156367	 1.6183651629	 0.4328260082	 0.137419
H	-0.4358757486	 1.700223605	-0.4386842351	 0.15429
H	-0.4277217586	 1.616507237	 1.3103131391	 0.149752
H	-4.1637624707	-1.0051873887	 0.7352006033	 0.128611
H	-4.0014692649	-1.004216933	-1.0186792631	 0.126817
H	-3.2849289718	-3.335180658	 0.5914068279	 0.108705
H	-1.4401677904	-3.9458165207	-1.0742788774	 0.133088
H	-1.6233747562	-2.2898765351	-1.8411797585	 0.128817
