16
gdb 16550	3.26467	2.75916	2.19255	1.5789	68.01	-0.2318	0.0007	0.2324	701.5855	0.133406	-346.60442	-346.598683	-346.597738	-346.633807	24.136	
C	-0.0210596166	 1.5319174395	 0.0127444991	-0.260587
C	 1.3887210586	 2.084217913	-0.0185028944	-0.051235
C	 2.4515650083	 1.285136275	-0.1204185318	-0.053425
C	 2.2069587031	-0.215684303	-0.2004353437	-0.021294
O	 0.9988360489	-0.4304667338	-0.9353484326	-0.250379
C	-0.0065989022	-0.0183978389	-0.0058752893	 0.024989
C	 0.5121751802	-0.5795867597	 1.3125683478	-0.081134
C	 1.8305389471	-0.7114340973	 1.199182177	-0.075692
H	-0.5533607325	 1.9011086321	 0.9007770798	 0.10436
H	-0.58137585	 1.9034830282	-0.8553125847	 0.115437
H	 1.5025510365	 3.1630569169	 0.0500054645	 0.089906
H	 3.4679417106	 1.6660110341	-0.1177429838	 0.088665
H	 3.0167173326	-0.7583833636	-0.6934732979	 0.081835
H	-0.9674492022	-0.4269050211	-0.3301648476	 0.080258
H	-0.1002460084	-0.743865753	 2.189455322	 0.101948
H	 2.543909196	-1.0020193683	 1.9588586958	 0.106347
