20
gdb 75438	2.84132	1.14128	0.84761	4.1259	86.06	-0.2457	0.0144	0.2601	1364.7253	0.17238	-366.060409	-366.051655	-366.050711	-366.093781	33.21	
C	-0.0139794762	 1.5323119716	 0.063536216	-0.479115
C	 0.0088742917	 0.0307164969	-0.0266280963	 0.301748
C	-0.008514307	-0.6207202042	-1.1920909277	-0.129455
C	-0.0218701548	-2.1199472859	-1.3358874147	-0.274317
C	-0.3477025243	-2.8323357493	-0.0178306359	-0.201543
C	 0.4419570596	-2.184110462	 1.1384527355	-0.160665
C	 0.0450007251	-0.7001711464	 1.2976124785	-0.285897
C	 0.2568610892	-2.9147981002	 2.3930465921	 0.265683
N	 0.0979358177	-3.4904551009	 3.3828569111	-0.326395
H	 0.8833099643	 1.9146374674	 0.5670482641	 0.124992
H	-0.0740973533	 1.9946230761	-0.9250480563	 0.123557
H	-0.871737119	 1.8797202554	 0.6541902994	 0.126417
H	-0.0156041831	-0.0459683393	-2.1159707932	 0.081797
H	-0.7534812943	-2.4119832812	-2.0993561717	 0.112231
H	 0.9502583911	-2.4644883604	-1.71965938	 0.11252
H	-1.4181384032	-2.7474238418	 0.2006795567	 0.119077
H	-0.1161145141	-3.8989797345	-0.0841267462	 0.116372
H	 1.5108020887	-2.2300121041	 0.8911350035	 0.12593
H	 0.7479559192	-0.2048806428	 1.978302629	 0.119564
H	-0.9357259874	-0.6335656145	 1.7887806559	 0.127499
