19
gdb 108698	3.26226	1.51854	1.19634	1.7629	82.91	-0.2066	-0.0339	0.1727	1058.5789	0.159487	-385.784473	-385.776789	-385.775845	-385.816433	30.698	
O	-0.1743345854	 1.4736271702	-0.2120354605	-0.412405
C	-0.18696971	 0.0614846821	-0.2351706965	-0.132302
C	-1.4381656254	-0.5419503943	 0.3222149146	 0.212228
C	-2.5795342758	 0.1536331583	 0.5558504745	-0.073289
C	-3.209285483	 0.7756043951	-0.7145886093	-0.253799
C	-3.9710768638	-0.5946447493	-0.7495338905	-0.06673
C	-3.2735439586	-1.8879090447	-0.1575401829	-0.039616
C	-1.7628279767	-2.0159304379	 0.1028181181	-0.318328
C	-3.7742917274	-0.8045037633	 0.7251324577	-0.108194
H	-0.6329714092	 1.7402767153	 0.5943389589	 0.281945
H	-0.0599594392	-0.2372702243	-1.2874451496	 0.118363
H	 0.6858649197	-0.3590613955	 0.2990514199	 0.099838
H	-3.9352386869	 1.5805355815	-0.5529292764	 0.103738
H	-2.5223475955	 1.0501910826	-1.5179949362	 0.116048
H	-4.8994688262	-0.7477127373	-1.2956790184	 0.087111
H	-3.8684335642	-2.7858405613	-0.3157100718	 0.078789
H	-1.1740341349	-2.3865586086	-0.7461840171	 0.109661
H	-1.5761466099	-2.7042800765	 0.9394991806	 0.110964
H	-4.4935673277	-0.8387609922	 1.5329904747	 0.085974
