15
gdb 17767	5.57834	1.23284	1.19736	3.7212	65.26	-0.2543	0.0294	0.2837	1002.0066	0.119333	-362.599431	-362.592603	-362.591659	-362.631146	25.485	
N	 0.0310132613	-1.1663949608	-0.0267171077	-0.30213
C	-0.0196887617	-0.0222764211	 0.1269037688	 0.263151
C	-0.0576375887	 1.428489427	 0.3098679113	-0.395583
C	 1.3242094986	 2.060939691	 0.1111317236	 0.042668
C	 1.9757591289	 2.2638504905	-1.2860664062	 0.049483
C	 0.9931405742	 3.4154425184	-1.6091103196	-0.233131
C	 1.5152848298	 3.5808844965	-0.1608973103	 0.02161
O	 2.8728321284	 3.2615387134	-0.6550932721	-0.302485
H	-0.8032800592	 1.8425609212	-0.3748095139	 0.153369
H	-0.4130332384	 1.6395248824	 1.325416894	 0.159408
H	 2.0421620157	 1.6810069438	 0.8404636674	 0.108992
H	 2.4275206792	 1.5252822568	-1.9473609198	 0.111757
H	 1.3784466195	 4.1526743016	-2.3132578702	 0.120742
H	-0.0615415841	 3.1902365613	-1.7804512037	 0.100039
H	 1.4144958866	 4.4219169181	 0.5256522484	 0.10211
