13
gdb 130516	3.94497	1.7546	1.21445	1.7519	76.83	-0.2219	-0.1065	0.1154	922.1909	0.091428	-415.58898	-415.582968	-415.582023	-415.61923	24.062	
O	-0.0850246419	 1.3128652034	 0.0100673365	-0.252123
N	 1.0850849664	 2.0637245961	 0.0025216278	-0.082713
C	 2.203221229	 1.3972722554	-0.0117837199	 0.077327
N	 2.4308069963	 0.0414110257	-0.0208946428	-0.340854
C	 1.3444781785	-0.6711996871	-0.0139674478	 0.326685
C	 1.1129710391	-2.0744582062	-0.0188701192	-0.265227
C	-0.2549228683	-2.233678616	-0.0063955091	-0.047936
C	-0.9694797397	-0.9668668959	 0.0070224356	-0.304135
C	-0.0037384256	-0.0167778203	 0.0024844031	 0.38005
H	 3.0780797188	 2.0395379511	-0.0169099268	 0.147654
H	 1.8706793731	-2.8411510132	-0.0301424892	 0.118153
H	-0.7627233908	-3.1909457342	-0.0063428606	 0.122598
H	-2.0395761247	-0.8364939089	 0.0180919325	 0.120522
