15
gdb 19996	3.69992	1.6663	1.32405	5.887	65.81	-0.2482	0.0079	0.2562	918.5263	0.120455	-358.793764	-358.786459	-358.785515	-358.82581	26.562	
N	 0.0512464377	-1.109766792	 0.5462493479	-0.326763
C	 0.0850777985	 0.026447602	 0.3368905751	 0.334363
C	 0.0852795648	 1.4390171523	 0.0414972743	-0.193872
N	 0.7328906909	 2.3309869684	 1.0250451503	-0.324745
C	 1.3351449033	 2.2008247528	-0.2974792289	-0.028957
C	 2.6944965159	 1.5728175469	-0.3632019771	-0.007487
C	 3.783212084	 2.139386895	 0.4757647069	-0.234241
N	 3.2242023011	 0.812569123	 0.7690091496	-0.305616
H	-0.834199512	 1.7796961481	-0.4272666029	 0.1362
H	 0.2006599104	 3.1906125415	 1.1214629047	 0.252349
H	 1.1775141403	 3.0106906379	-1.009438794	 0.10638
H	 2.9414727989	 1.1579505295	-1.3382788858	 0.104975
H	 4.8057307349	 2.1423601707	 0.1097543645	 0.12241
H	 3.5260742896	 2.9643126605	 1.1355907891	 0.114573
H	 2.5749784019	 0.8888817233	 1.5508246962	 0.25043
