18
gdb 87292	2.66275	1.28979	1.09141	1.5439	72.93	-0.2479	-0.0407	0.2072	1159.0142	0.146684	-439.045163	-439.036539	-439.035595	-439.078868	32.498	
O	-0.4751039864	 1.4074122234	-0.3451948473	-0.414595
C	-0.3269990426	 0.0455132379	-0.2716886297	 0.120709
C	-0.1515603906	-0.6892539902	 0.9958060756	-0.353825
C	-1.492928835	-0.8748801375	 0.2567032054	 0.136094
C	-2.6237967187	-0.1219721041	 0.8271482217	 0.111799
O	-2.5215294049	 0.9630348307	 1.3748481092	-0.316586
C	-1.7954491461	-2.2030025446	-0.3782749112	-0.115934
C	-2.8317016676	-2.3217291663	-1.4407241679	-0.236704
N	-1.4131787687	-2.525847934	-1.7663333067	-0.313812
H	-1.0489781492	 1.677129522	 0.3938485727	 0.309131
H	 0.1846368196	-0.3357581645	-1.1498999626	 0.124059
H	 0.4964376845	-1.5596825105	 1.0078443493	 0.13419
H	-0.1997944845	-0.1211426018	 1.9193184197	 0.139214
H	-3.6190644166	-0.5943664552	 0.7060671522	 0.098167
H	-1.6672626805	-3.0563695034	 0.285985818	 0.102712
H	-3.4540094235	-3.2099697258	-1.4983103996	 0.124984
H	-3.3118218607	-1.4090169588	-1.7847654788	 0.117852
H	-1.0592912185	-1.6916975072	-2.22888959	 0.232545
