17
gdb 50867	5.06355	0.7103	0.66745	3.0638	71.69	-0.2582	-0.0317	0.2264	1661.2403	0.132886	-458.98511	-458.975752	-458.974808	-459.021693	32.158	
O	 0.4764552438	-0.2241282314	-0.142409334	-0.234
C	 0.2382713975	 0.9367220984	-0.3402778751	 0.164635
C	 1.2513402006	 2.0518026287	-0.1095002524	-0.395919
C	 1.101247899	 3.1590386464	-1.1324246156	 0.426799
O	 0.0418814797	 3.6195577226	-1.4763556859	-0.356081
O	 2.29991814	 3.5387526052	-1.6153462549	-0.239721
C	 2.2924842452	 4.586332068	-2.5758627257	 0.142875
C	 2.8975964759	 5.8954177517	-2.1694620733	-0.279976
C	 3.6335890396	 4.9610823408	-3.1113367165	-0.296239
H	-0.7510287247	 1.289713021	-0.6963082989	 0.112963
H	 1.0138681939	 2.4914119042	 0.869797485	 0.16346
H	 2.2627712578	 1.6477752921	-0.069217862	 0.14807
H	 1.4188388253	 4.5687404993	-3.2138240165	 0.130531
H	 2.4563831603	 6.8048820831	-2.5608685897	 0.127383
H	 3.2741380346	 5.9688501231	-1.1557294528	 0.127283
H	 4.4874116941	 4.4275096867	-2.7099442303	 0.131743
H	 3.7104781272	 5.2201030502	-4.1609853615	 0.126194
