18
gdb 98628	4.59556	1.00502	0.87388	2.3868	74.83	-0.2384	0.0341	0.2725	1344.2615	0.147132	-439.072751	-439.064066	-439.063122	-439.106764	31.221	
C	-0.2558405064	 1.2267075455	 0.0843254566	-0.229189
O	 0.1900869944	-0.1248708801	-0.0601845333	-0.24305
C	 0.8011896081	-0.6358496381	 1.0322601101	 0.475535
O	 0.9478176568	-0.0406184863	 2.0729957007	-0.398906
N	 1.3061430712	-1.8974316273	 0.7489278329	-0.153173
C	 0.4319742323	-3.0102270083	 0.3678501187	-0.036133
C	 1.3482299194	-4.1408638293	-0.1162487488	-0.240719
C	 2.0629318929	-4.1117646076	 1.2849246885	-0.242706
C	 1.1160225491	-2.9810087959	 1.707272099	-0.026279
H	 0.5868151603	 1.8935946363	 0.2843749531	 0.140596
H	-0.727084265	 1.4847606139	-0.8645173446	 0.1302
H	-0.9736706439	 1.3150472275	 0.9039675119	 0.137396
H	-0.6001731379	-2.8132220969	 0.1075524538	 0.11275
H	 0.810662546	-5.0758131683	-0.2867086564	 0.109891
H	 1.9590123084	-3.9048119943	-0.9900855623	 0.11591
H	 1.9002839465	-5.031480565	 1.8501451406	 0.110546
H	 3.1249572537	-3.8583045318	 1.2949011618	 0.116706
H	 0.7211426841	-2.7514748142	 2.6886836178	 0.120625
