19
gdb 41208	2.86672	1.73278	1.54642	0.7061	75.33	-0.2459	0.0279	0.2738	947.1977	0.16081	-422.895123	-422.888174	-422.88723	-422.926036	29.126	
C	 0.0132870223	 1.5956587254	 0.0940333245	-0.206753
O	 1.4972931412	 1.5066147615	-0.024976584	-0.332873
C	 1.2057669974	 0.3123777883	-0.8793603017	 0.110328
C	 1.2072121564	-1.245369492	-1.1596338006	 0.001649
C	 1.7134635668	-2.1750757541	-0.0779321894	-0.204263
C	 1.512610434	-1.5064066623	 1.2912678569	-0.210121
C	 0.2292741765	-0.6562411336	 1.2867655084	-0.21832
C	 0.0262404193	 0.0322715927	-0.07208929	 0.347461
O	-0.2825259854	-1.0882282267	-1.0297727399	-0.363171
H	-0.279151034	 2.0158429426	 1.0596519836	 0.119016
H	-0.4120457346	 2.1594885659	-0.742656556	 0.118074
H	 0.9281223026	 0.7357290236	-1.8513106739	 0.099674
H	 1.471188519	-1.5449697424	-2.1764271702	 0.09252
H	 1.1520718321	-3.1128789555	-0.1563190103	 0.115841
H	 2.7692366485	-2.4129117342	-0.2502165841	 0.103802
H	 1.5012344021	-2.2437192274	 2.0992257182	 0.095572
H	 2.3577107636	-0.8358079289	 1.4790432739	 0.120494
H	-0.6569678768	-1.2836955657	 1.4381265168	 0.111415
H	 0.2608234989	 0.0704511428	 2.1028603677	 0.099653
