17
gdb 96623	3.26086	1.02559	0.82788	3.1558	74.54	-0.2462	-0.0639	0.1823	1382.4907	0.134045	-455.136874	-455.127341	-455.126397	-455.171934	33.659	
C	-0.048248866	 1.5566237091	-0.3685658455	-0.343887
N	 0.043493646	 0.1270978138	-0.1408989648	-0.275554
C	-1.046165191	-0.4981636765	 0.1136454063	 0.274995
N	-2.311254824	 0.0031021793	 0.2273069245	-0.553207
C	-0.9815962651	-1.9880806564	 0.3650196464	 0.337548
O	-2.0008753801	-2.6202378149	 0.5493530163	-0.331204
C	 0.3769694573	-2.6238314207	 0.3906459123	-0.024373
C	 0.6192307763	-3.6961629141	 1.3808245444	-0.161521
O	 0.4012141092	-4.0047879924	 0.0187005251	-0.212949
H	 0.9508481282	 1.969799961	-0.5227375085	 0.130775
H	-0.6471794919	 1.7937800314	-1.2632015928	 0.115491
H	-0.5102614948	 2.0820177964	 0.4819748704	 0.120653
H	-2.5360065304	 0.8983431193	-0.1700161698	 0.261208
H	-3.0453202824	-0.6876872246	 0.2817415615	 0.273775
H	 1.2018493257	-2.0167460145	 0.0375790021	 0.132686
H	 1.6327437649	-3.8444648361	 1.750788984	 0.123228
H	-0.1905292719	-3.9710784802	 2.0541434582	 0.132337
