22
gdb 105069	2.4864	1.19172	1.10689	0.8682	82.66	-0.2118	0.068	0.2798	1259.892	0.192556	-404.289966	-404.280109	-404.279165	-404.324771	37.301	
O	 2.145896104	 0.423606606	-0.2583949799	-0.412284
C	 1.5105869772	-0.834548744	-0.1002310379	-0.165729
C	-0.0113850766	-0.7728448253	-0.2353452898	 0.349645
C	-0.738790601	 0.4465484978	 0.262658532	-0.290092
C	-0.5936468811	 0.215872901	-1.2234871514	-0.304545
N	-0.7614054011	-2.0121729273	-0.1543912968	-0.145257
C	-0.1392683059	-3.3133938026	 0.0625493268	-0.263271
C	-1.0301674064	-2.7160065178	 1.1004600257	 0.031237
C	-0.4937820437	-2.2743910715	 2.4440571328	-0.416815
H	 2.1361570634	 0.6443369004	-1.194278761	 0.288269
H	 1.9072840318	-1.568642474	-0.8181878878	 0.096535
H	 1.7949648788	-1.1754457119	 0.9007562593	 0.11161
H	-1.7166079556	 0.2981593687	 0.7061813007	 0.111715
H	-0.1388307635	 1.2336262414	 0.7045706155	 0.125408
H	 0.06457473	 0.881076489	-1.7723497225	 0.088137
H	-1.4625135449	-0.1262280476	-1.7719955319	 0.117876
H	-0.4825483982	-4.1163751504	-0.5867338215	 0.109997
H	 0.9190022224	-3.3671787141	 0.3098272232	 0.110033
H	-2.0554038458	-3.0837156461	 1.1483172016	 0.086356
H	 0.5715177871	-2.0333548307	 2.4142774315	 0.122732
H	-1.0272412869	-1.3920620052	 2.8124575786	 0.127755
H	-0.632781174	-3.0748435459	 3.1789675429	 0.120687
