20
gdb 33153	4.90437	0.78604	0.7168	3.2836	83.19	-0.1806	0.0398	0.2204	1628.4068	0.172508	-399.371079	-399.361668	-399.360724	-399.406003	34.46	
C	 0.0051631452	 1.5555644863	 0.0315738738	-0.381003
C	 0.0060798204	 0.0268490603	 0.1008065833	-0.16768
C	-1.4014574992	-0.5596834021	-0.0680766114	-0.160938
N	-1.4340053834	-2.0095370839	-0.0131402243	 0.033284
C	-1.5779200144	-2.860081034	-1.0584485597	-0.003589
N	-1.5229389144	-4.1253679214	-0.6920344199	-0.325512
C	-1.3238815887	-4.097793668	 0.6649552414	 0.285722
N	-1.1582666062	-5.292104927	 1.3738088122	-0.595433
C	-1.2615909118	-2.7995526929	 1.1171625836	-0.217712
H	 1.0154940138	 1.95501258	 0.1563012025	 0.122469
H	-0.3758940804	 1.9111305322	-0.9322780725	 0.118485
H	-0.6235585374	 1.9904199293	 0.8165477537	 0.11832
H	 0.6553569373	-0.3898533553	-0.6777631263	 0.113012
H	 0.4193522153	-0.3067813169	 1.0594047542	 0.111485
H	-2.0697538657	-0.1619093314	 0.705490161	 0.116805
H	-1.8193121497	-0.2595457132	-1.0348275084	 0.118051
H	-1.7295393622	-2.5026362413	-2.0666504317	 0.119873
H	-1.530887209	-6.0691618826	 0.8430094923	 0.246487
H	-1.568256819	-5.2729105051	 2.2979703533	 0.23831
H	-1.1182169506	-2.3705702828	 2.0943124928	 0.109566
