19
gdb 41377	2.44966	1.87333	1.79235	0.9152	73.16	-0.2453	0.0589	0.3042	915.502	0.160896	-422.988661	-422.98152	-422.980576	-423.019916	29.147	
C	-0.0249497216	 1.5911827557	-0.172120018	-0.301804
C	 1.48462523	 1.674404111	 0.2661587403	-0.299079
C	 1.4728311091	 0.140170254	 0.4747745577	 0.334426
C	 0.8765061747	-0.4174329873	 1.7901043192	-0.155558
O	-0.4443104581	-0.5183330318	 1.1767433188	-0.343637
C	 0.0563848462	 0.0393905467	-0.0612861419	 0.391224
C	 0.1336075614	-0.9129690204	-1.2414488234	-0.320767
C	 1.4944009546	-1.6190741049	-0.9700517981	-0.096247
O	 2.3298618801	-0.6651632436	-0.2849124614	-0.308293
H	-0.7312902942	 2.0197834794	 0.540582843	 0.117254
H	-0.2411788283	 1.9834760783	-1.1681011481	 0.105377
H	 2.1559989615	 1.9569512019	-0.5466191515	 0.116234
H	 1.705931579	 2.2873717937	 1.1425429608	 0.102952
H	 1.2640165927	-1.3974560725	 2.0908657158	 0.108345
H	 0.8779513547	 0.2587334689	 2.6531818901	 0.100864
H	-0.6985900025	-1.619670011	-1.2794043184	 0.119075
H	 0.1675444009	-0.3603860778	-2.1850275654	 0.108848
H	 1.3416229127	-2.5072812616	-0.3413327558	 0.107272
H	 2.0209451272	-1.9258788587	-1.8769849136	 0.113515
