15
gdb 5789	6.06541	1.38793	1.21861	2.103	66.99	-0.2156	0.0225	0.2381	967.7657	0.12109	-362.656657	-362.65005	-362.649106	-362.687948	24.862	
C	 0.0291038142	 1.5542902465	-0.0046317536	-0.224464
N	 1.2543934816	 0.7433948151	 0.0182788954	-0.309833
C	-0.0513787877	 0.0632902174	 0.0284983542	-0.159003
C	-0.396094998	-0.6822330963	 1.2578195931	 0.281399
C	 0.3850893376	-0.8481406461	 2.3600440846	-0.093153
O	-0.2639979614	-1.580910996	 3.304791687	-0.144087
C	-1.4832821067	-1.8920517319	 2.793768456	 0.009371
C	-1.6244758117	-1.3728508936	 1.5477797466	-0.305157
H	-0.1627053714	 2.1114261814	 0.9075701916	 0.123153
H	-0.2487631739	 2.0642766329	-0.9237315859	 0.111017
H	 1.6643597806	 0.6985968068	-0.9102026909	 0.234584
H	-0.378601306	-0.4058517261	-0.8981256967	 0.087159
H	 1.381572812	-0.5222889518	 2.6023616208	 0.14875
H	-2.1224941931	-2.4805627211	 3.4310757837	 0.133868
H	-2.4891216962	-1.4619616972	 0.9080576843	 0.106396
