20
gdb 78350	2.29526	1.59357	1.3853	0.2936	78.61	-0.2389	0.0735	0.3124	1060.4171	0.170732	-403.083756	-403.075119	-403.074175	-403.116509	33.801	
C	-0.255814505	 1.5828277541	-0.1020534046	-0.418459
C	 0.0227385022	 0.0866880383	-0.0123592202	-0.064621
C	 1.0603528818	-0.5660584634	-0.9497648517	-0.117246
C	 2.4722481746	-0.2351904468	-0.5984947024	 0.106797
O	 2.8295129639	 1.0498640258	-0.1663816479	-0.418908
C	 1.7616169947	-1.2300286635	 0.2705561436	-0.214739
C	 0.7931899635	-0.5112992662	 1.1867987408	 0.378213
C	 1.0130985886	 0.0597905144	 2.5324227424	-0.309195
N	 0.1895090633	-1.15694319	 2.3456773157	-0.385035
H	 0.6651801033	 2.1574643029	 0.0022292447	 0.146011
H	-0.7106355394	 1.8323896399	-1.0671708921	 0.111446
H	-0.9595609774	 1.8966786237	 0.6782974986	 0.101424
H	-0.9174553457	-0.4710950567	-0.1114887617	 0.077367
H	 0.8132779467	-1.0050660982	-1.9093808613	 0.087853
H	 3.198422314	-0.6873099171	-1.2764696591	 0.089583
H	 3.4710156804	 0.954119095	 0.5451980112	 0.286961
H	 2.1012874977	-2.2494604155	 0.4104670632	 0.096242
H	 1.9508606474	-0.103458566	 3.0581467916	 0.107268
H	 0.5158965459	 0.9955161173	 2.7760761109	 0.111728
H	-0.7986427204	-0.9190751881	 2.4032610283	 0.227311
