19
gdb 16224	2.78875	2.2833	1.42767	1.613	78.24	-0.2183	0.0234	0.2417	925.1254	0.166691	-327.92274	-327.915007	-327.914062	-327.954684	29.77	
C	-0.0576239025	 1.4959752719	 0.0496151692	-0.512162
C	 0.0146165556	 0.0002860187	 0.0065082663	 0.274442
C	 0.0133792376	-0.77134961	-1.0849054953	-0.173578
C	 0.0768665939	-2.2461952742	-0.7717235548	-0.265433
C	 0.3583136821	-2.2758604111	 0.7531964528	-0.287315
C	 0.0705909603	-0.8518485947	 1.2373835472	 0.280592
C	 0.4862469377	-0.3391204585	 2.5670748723	-0.297311
N	-0.9261095074	-0.6815091202	 2.3239460155	-0.35706
H	 0.8605439036	 1.9305919783	 0.4635831482	 0.130826
H	-0.2052093968	 1.9124507781	-0.9499373092	 0.128599
H	-0.8840298595	 1.8498332724	 0.6797572962	 0.119331
H	-0.0516819921	-0.3936348001	-2.100315433	 0.085688
H	-0.8696853997	-2.7412005459	-1.0283584128	 0.10911
H	 0.8544254295	-2.7626547078	-1.3461596933	 0.102629
H	-0.2515127309	-3.0019450604	 1.2945538992	 0.114317
H	 1.4097354466	-2.5226069532	 0.9344284443	 0.103203
H	 1.0025435756	-1.0024771082	 3.2572285707	 0.11406
H	 0.7638906769	 0.7079446162	 2.6613996336	 0.10539
H	-1.4659258805	 0.1687697688	 2.1754749626	 0.22467
