16
gdb 27292	3.13523	1.63501	1.0948	3.6138	71.78	-0.17	0.0487	0.2187	1049.3121	0.126345	-437.899129	-437.891541	-437.890597	-437.931199	28.805	
O	 0.19160164	 1.3746894591	 0.1228510981	-0.45576
C	 0.0852364753	 0.0130077202	 0.0224215581	 0.148301
C	 0.1657809972	-0.7980109201	-1.0784904987	 0.281713
O	 0.4828399486	-0.679074619	-2.4041681982	-0.293837
C	 0.2067777124	-1.9733811405	-2.9745520115	-0.101593
C	 0.3001727954	-2.9852307246	-1.8017667201	-0.198746
N	-0.0282556742	-2.1004343379	-0.7034478354	-0.032564
C	-0.1976550467	-2.1598215635	 0.6618507459	-0.150337
C	-0.1549299027	-0.8629414205	 1.1286868155	-0.212239
H	 0.3661360376	 1.7312336684	-0.75346174	 0.298309
H	-0.8061904196	-1.9708994479	-3.3956708542	 0.120378
H	 0.9310928647	-2.1585265595	-3.7690223865	 0.126588
H	-0.4141687669	-3.8053840587	-1.9123216304	 0.127375
H	 1.3088798761	-3.4056828079	-1.6962750068	 0.124443
H	-0.3845960929	-3.0900351613	 1.1711859821	 0.11598
H	-0.3088058643	-0.5451760263	 2.148318072	 0.101989
