17
gdb 24338	3.64769	1.57017	1.12409	1.828	83.42	-0.1863	0.0089	0.1952	1043.9973	0.140409	-380.90892	-380.901924	-380.90098	-380.94004	28.555	
C	-0.0226157871	 1.5184380413	-0.010716017	-0.233945
N	 1.3074101117	 2.1553410882	-0.0508035869	-0.414893
C	 2.231559426	 1.4327621095	-0.8454989871	 0.187854
C	 3.3829499861	 1.8627517087	-1.4561709504	-0.171562
N	 3.9533751733	 0.7623119509	-2.0655537708	-0.245916
C	 3.1766677673	-0.3493688136	-1.8684922131	-0.209361
C	 2.0952952217	 0.027819279	-1.0989463534	 0.250993
C	 0.9897342382	-0.6957526387	-0.5057410206	-0.157096
C	-0.0075846719	 0.0025097019	 0.0564406917	-0.111286
H	-0.5689995445	 1.9393804442	 0.8388998675	 0.101571
H	-0.5743841968	 1.83129363	-0.9120000904	 0.114775
H	 1.6638221478	 2.2755244897	 0.8918063005	 0.225535
H	 3.8486910325	 2.8335487022	-1.4974593846	 0.117452
H	 4.7807962185	 0.7902749468	-2.6336746768	 0.260528
H	 3.4513017458	-1.3035410511	-2.2896327829	 0.118724
H	 0.9965251894	-1.7819175724	-0.4965018559	 0.081976
H	-0.8477151982	-0.4959417866	 0.5305727403	 0.084652
