24
gdb 118164	2.08468	0.7845	0.60094	2.7684	91.79	-0.2469	0.0237	0.2706	1963.4177	0.214108	-405.555827	-405.544064	-405.54312	-405.594243	40.649	
C	-0.0409783861	 1.6609752431	 0.0398343806	-0.378716
C	 0.0111493758	 0.132506758	-0.0338844699	-0.173734
C	-1.3770211569	-0.5134747077	-0.0192209701	-0.1459
C	-1.3564558673	-2.0504084963	-0.0689194676	 0.036473
C	-2.771409355	-2.6278809385	 0.0625559812	-0.382526
N	-0.7851331749	-2.4918609362	-1.3344161013	-0.209418
C	 0.2122835872	-3.2561194304	-1.2970129254	 0.126911
O	 0.7707087425	-3.7190403814	-2.4343514385	-0.194411
C	 1.9191635844	-4.5393484536	-2.2640812211	-0.24924
H	 0.9631473152	 2.0968080475	 0.027035449	 0.107709
H	-0.5948608179	 2.0782035355	-0.8084818534	 0.115395
H	-0.5389144712	 1.9990917413	 0.9557657742	 0.109844
H	 0.5387387398	-0.1746508204	-0.943949837	 0.108805
H	 0.5999127583	-0.2548364133	 0.8095274538	 0.082876
H	-1.9149875188	-0.2059315161	 0.8873993787	 0.084351
H	-1.9616642493	-0.1492441188	-0.8736728434	 0.101528
H	-0.7529762267	-2.413185044	 0.7851679799	 0.050221
H	-2.7474104052	-3.7216382297	 0.049437225	 0.108688
H	-3.2366757465	-2.3037905296	 0.9991448449	 0.106797
H	-3.3964207201	-2.2948463065	-0.7716772048	 0.125752
H	 0.7002195879	-3.6091107553	-0.3738458317	 0.070454
H	 2.2193337467	-4.8594934151	-3.2625291118	 0.145897
H	 2.7454442441	-3.9846955634	-1.8025041727	 0.126543
H	 1.6961924342	-5.4252537591	-1.6565392086	 0.1257
