18
gdb 101288	2.40015	1.18957	1.02411	3.8589	72.89	-0.2682	-0.0028	0.2654	1252.641	0.144985	-439.057011	-439.047197	-439.046253	-439.093162	34.136	
C	-1.1385242232	 1.9225470273	-0.1445929498	-0.234834
O	-1.0673741663	 0.7744869838	 0.6737753314	-0.250607
C	-1.354616331	-0.4480188414	 0.0130736132	 0.086319
C	-0.2401877827	-0.9306666724	-0.9153698911	-0.432031
C	-1.7141796607	-1.4027125751	 1.1443531978	 0.055968
O	-1.3615401185	-2.7782100261	 1.0440454859	-0.229904
C	-0.7510126603	-2.0115180076	 2.086215852	-0.085522
C	 0.6796686891	-1.8084616403	 2.0275413152	 0.320059
N	 1.8264955843	-1.666171901	 2.0474773482	-0.334569
H	-1.0081075895	 2.7871095419	 0.5102186518	 0.134521
H	-0.3510174575	 1.9422310986	-0.9101254101	 0.117226
H	-2.1152732907	 2.0005736261	-0.6469955086	 0.10566
H	-2.2726795654	-0.3228421555	-0.5875810229	 0.075957
H	-0.4673459411	-1.9345232509	-1.2823657449	 0.137573
H	-0.1557544644	-0.2651210076	-1.7783084398	 0.118306
H	 0.7235008952	-0.955664353	-0.4039808191	 0.159664
H	-2.7057800001	-1.2287066888	 1.5636812647	 0.113373
H	-1.1040424672	-2.246976228	 3.0892714262	 0.142841
