17
gdb 72258	2.47107	1.72918	1.48835	1.8368	67.27	-0.2276	0.0677	0.2953	952.1847	0.135839	-458.91701	-458.909305	-458.908361	-458.948641	30.631	
O	-0.1522817175	 1.3600492568	-0.0411028777	-0.461093
C	 0.0089919808	-0.0081631398	-0.057312696	 0.333415
C	 0.8866368971	-0.8021306411	-1.0250493039	-0.319382
C	-0.0724014301	-2.0197350082	-0.7735881809	 0.007828
O	 0.4149880554	-2.8985539507	 0.2308702303	-0.266578
C	 0.5299414209	-2.1259090793	 1.4352541446	-0.103479
C	-0.3003671466	-0.8739123318	 1.1862289801	-0.242659
C	-1.0787988316	-1.0502967741	-0.094134298	 0.33698
O	-2.4316139651	-0.9232772303	-0.2953016253	-0.459414
H	 0.5834148377	 1.7503385023	 0.4439075398	 0.28698
H	 0.7955393448	-0.4139258416	-2.0433107355	 0.112257
H	 1.9413116942	-0.9651187899	-0.7800233838	 0.094392
H	-0.385245036	-2.6028380617	-1.6380312279	 0.092504
H	 0.1421289677	-2.7204385694	 2.2712237401	 0.104296
H	 1.5872624344	-1.9059220412	 1.6402452758	 0.095296
H	-0.7731536584	-0.3373654068	 2.0006408017	 0.098012
H	-2.8857140878	-1.5829419632	 0.2410700766	 0.290646
