23
gdb 99985	2.66788	1.08644	0.94945	1.2464	87.32	-0.2618	0.032	0.2939	1376.0407	0.201449	-388.261771	-388.250359	-388.249415	-388.29758	42.601	
C	 0.1835961218	 1.5539578461	 0.0299632325	-0.410874
C	-0.0290668815	 0.0368607737	-0.0145115067	-0.185113
C	-1.4983033417	-0.4554180799	 0.0295882393	 0.256414
C	-2.2234301785	 0.0612157989	 1.2841609066	-0.437411
C	-2.2572732125	-0.0206271846	-1.2356527326	-0.42596
C	-1.4394682684	-2.0198676838	 0.0648241587	-0.057843
O	-0.7064689817	-2.514220207	 1.1860730406	-0.429675
C	-2.7620240543	-2.6506901753	 0.003101159	 0.29321
C	-3.8428384922	-3.1787066994	 0.0061550217	-0.442976
H	 1.2520512571	 1.7836830091	-0.0322862644	 0.114333
H	-0.3076012423	 2.0678017466	-0.8024222766	 0.115157
H	-0.1883012842	 1.9934505752	 0.9604937105	 0.117113
H	 0.4330414414	-0.3568030524	-0.9303675919	 0.086167
H	 0.5072467695	-0.4277219989	 0.8186438046	 0.113724
H	-2.3366828794	 1.1481247611	 1.2536669797	 0.118271
H	-3.2254548198	-0.3726387805	 1.3616661617	 0.120927
H	-1.6684046603	-0.186270474	 2.1954639646	 0.107862
H	-1.7719184289	-0.4044762691	-2.1405594391	 0.109031
H	-3.2873449585	-0.3868773787	-1.2257606876	 0.125788
H	-2.292220887	 1.0695537869	-1.3142255078	 0.115095
H	-0.8605815733	-2.3421627073	-0.8104908838	 0.111184
H	-1.3058782352	-2.5311250486	 1.9394163681	 0.287386
H	-4.7931703001	-3.6530280282	-0.008230187	 0.198188
