16
gdb 44729	2.41526	1.73337	1.19688	3.8326	74.51	-0.246	0.0221	0.2681	1029.9369	0.124306	-400.717189	-400.709348	-400.708404	-400.749835	30.034	
O	-0.1507728015	 0.0425943397	 0.0173602726	-0.352275
C	-0.0622104258	 1.2364210583	-0.0418209192	 0.434842
N	-1.0107320347	 2.2431280496	-0.1379287108	-0.323584
C	-0.058437212	 3.3495668677	-0.0542360845	 0.020901
C	 0.3025795063	 3.8056487577	 1.3852203686	-0.256006
C	 1.4772492612	 2.7620416708	 1.4216623556	-0.180654
C	 1.5076171193	 1.792359768	 2.4959103679	 0.337997
C	 1.513912762	 0.9951239388	 3.3956221606	-0.455019
C	 1.0792774357	 2.2772856402	-0.0229664746	-0.215099
H	-1.9940534615	 2.2133842493	 0.0967659131	 0.247532
H	-0.1592266945	 4.1054468388	-0.8332827118	 0.091866
H	 0.6518845477	 4.8377578174	 1.4549247947	 0.114424
H	-0.4845090673	 3.6431686836	 2.1229467141	 0.115695
H	 2.4378435347	 3.2828397931	 1.3705022164	 0.11558
H	 1.5223949013	 0.2775323226	 4.178272661	 0.20061
H	 1.8718466392	 2.1822249745	-0.7617093137	 0.103191
