21
gdb 90255	3.35472	1.42572	1.20087	1.9903	81.73	-0.2356	0.0696	0.3052	1105.107	0.183377	-387.039652	-387.031722	-387.030778	-387.071998	31.693	
C	-0.0946550462	 1.5747641969	-0.0046856227	-0.403791
C	 0.0136910935	 0.0553958344	 0.0062749594	 0.029526
C	 1.0612343456	-0.5748919268	-0.9782070453	-0.365987
C	 1.8672090855	-1.0505673447	 0.2264158969	 0.334386
C	 2.8403762827	-2.1880444538	 0.4955981232	-0.182356
O	 3.5863671339	-1.3627944092	 1.4284607278	-0.296948
C	 2.8440412064	-0.1760482409	 1.0597388331	 0.082091
C	 1.7314556573	 0.1938272867	 2.0704791577	-0.260009
C	 0.7320847734	-0.6417863158	 1.2241213487	-0.089617
H	 0.8858741534	 2.0569375527	 0.0706846251	 0.117558
H	-0.5545581198	 1.9186131761	-0.9375830029	 0.115296
H	-0.7100985437	 1.939561895	 0.8250403544	 0.116926
H	-0.9828982895	-0.3700995745	-0.141216977	 0.075572
H	 0.6411018192	-1.3978712064	-1.5651191157	 0.101368
H	 1.5673375563	 0.1105092476	-1.6665041195	 0.096232
H	 2.441889701	-3.0956928681	 0.9662496445	 0.09951
H	 3.4618291422	-2.4749913804	-0.3654377045	 0.096608
H	 3.4939955104	 0.6078085613	 0.6550572168	 0.065577
H	 1.933087538	-0.215520328	 3.0633058679	 0.110151
H	 1.5068426979	 1.2594725915	 2.1685599218	 0.097154
H	 0.1186322425	-1.3789513035	 1.7461503001	 0.060753
