16
gdb 43252	3.44553	1.67306	1.42926	3.6727	75.45	-0.236	-0.0676	0.1684	917.2062	0.126719	-400.70765	-400.701273	-400.700329	-400.738262	26.15	
O	-0.0089120241	 0.0925033018	 0.4448472277	-0.330495
C	-0.0243868223	 1.2372324388	 0.0620080579	 0.394483
C	-1.1940046939	 2.1586622653	-0.0600547169	-0.247757
C	-0.7392222128	 3.3640100349	-0.4583539609	 0.133356
C	-0.7814892096	 4.6044784682	 0.3861237788	-0.274735
C	 0.535179497	 4.2263224322	 1.1709371649	-0.146639
N	 1.4529200723	 3.515830175	 0.2067794678	-0.122648
C	 1.1987051801	 2.0860286181	-0.2735490595	-0.146602
C	 0.674396008	 3.2701786053	-0.9911720563	-0.095813
H	-2.0976408841	 1.9821061871	 0.513788856	 0.116937
H	-0.6485011219	 5.5378673556	-0.1677954483	 0.119797
H	-1.6519126645	 4.6811282097	 1.0386939819	 0.122539
H	 1.0758662684	 5.1123052957	 1.5124784571	 0.126073
H	 0.2946111294	 3.6012365326	 2.0348494312	 0.127174
H	 2.1209718498	 1.5745839535	-0.5242642802	 0.117032
H	 0.9875212485	 3.6249551561	-1.9687433812	 0.107299
