20
gdb 97251	3.284	1.20023	0.92413	3.2676	88.93	-0.2273	-0.0224	0.2049	1302.7782	0.172032	-403.164418	-403.155591	-403.154646	-403.198434	32.694	
C	 0.8356847107	 1.5208261979	 0.3323372825	-0.31448
N	 0.438063489	 0.1277443767	 0.2457637201	-0.292518
C	 0.1482598017	-0.3535212254	-0.8988651152	 0.353347
O	 0.2443110282	 0.4316537337	-2.0092931961	-0.266154
C	-0.3893500531	 0.0828167304	-3.2390609724	-0.078732
C	 0.2552345633	-1.1203554272	-3.9215032559	-0.216326
C	-0.3117536353	-2.4552493658	-3.4385300134	-0.261327
C	-0.4201515331	-2.6359245416	-1.9539274786	-0.076675
C	-0.2466911539	-1.7707231271	-0.9470691888	-0.089543
H	 1.870399224	 1.6571863286	-0.0116549842	 0.120591
H	 0.20858145	 2.1842764674	-0.277109182	 0.11424
H	 0.7873730089	 1.8404486877	 1.376702258	 0.113134
H	-1.4634921212	-0.0811190437	-3.0785240451	 0.110033
H	-0.2763017668	 0.9793906565	-3.8539977381	 0.117206
H	 0.1078449634	-1.040047913	-5.0045057454	 0.102778
H	 1.3352891733	-1.066743517	-3.7437782747	 0.119743
H	-1.3172953792	-2.5975135051	-3.8652549733	 0.11672
H	 0.2826223834	-3.2827325655	-3.8489328176	 0.115045
H	-0.7055254856	-3.6450545304	-1.6601429803	 0.09821
H	-0.3758929076	-2.1432368271	 0.0636950308	 0.114706
