19
gdb 38304	2.89551	1.9608	1.95446	1.5253	76.61	-0.2135	0.0105	0.224	846.1086	0.163975	-385.852359	-385.846489	-385.845544	-385.882079	26.634	
C	-0.0723970811	 1.5991030553	 0.0935747593	-0.223001
C	 1.4619390137	 1.4225644761	 0.0298365721	 0.081282
O	 1.2790094094	 0.1614737504	 0.7551501578	-0.292454
C	 0.0047167268	 0.0562718513	 0.0375105163	 0.081282
C	 0.3079752857	-0.4958706125	-1.426152642	-0.087205
C	 1.8552450464	-0.4660229773	-1.5435223143	-0.175733
C	 1.9852169817	 1.0767143782	-1.434988019	-0.087205
C	 0.950680534	 1.469768634	-2.4940718744	-0.078846
C	-0.0236491233	 0.5562337177	-2.4889409102	-0.078846
H	-0.3691217966	 1.9211895497	 1.0932959785	 0.102757
H	-0.603771144	 2.1615606562	-0.668796996	 0.101565
H	 2.1144586292	 2.113700852	 0.5671509471	 0.075423
H	-0.7239388597	-0.5475838977	 0.5820993109	 0.075424
H	-0.1556926293	-1.4710765644	-1.5862879936	 0.059279
H	 2.3734649681	-1.0143325464	-0.7611411503	 0.112391
H	 2.1769776281	-0.8146964502	-2.5272960029	 0.087126
H	 2.9873153586	 1.4758147977	-1.6028431641	 0.059279
H	 0.9903951093	 2.3757977604	-3.0863951981	 0.09374
H	-0.9336636171	 0.5717980097	-3.0762604969	 0.09374
