15
gdb 26778	3.61175	1.13184	0.86823	6.7886	80.45	-0.2139	-0.0285	0.1854	1263.8134	0.113872	-413.04544	-413.036724	-413.03578	-413.079092	31.209	
C	-0.0545475927	 1.5142227662	 0.0392748869	-0.50852
C	-0.0252868296	 0.0207234986	-0.010826905	 0.229119
C	 0.0400316024	-0.7967341248	-1.1295846308	 0.250786
N	 0.0357146746	-0.5338281835	-2.4994667519	-0.614507
N	 0.0295330642	-2.0802043784	-0.6554517856	-0.329457
C	-0.0352656679	-2.0025695738	 0.7180919327	 0.228917
N	-0.0751580268	-0.7473284944	 1.1207557165	-0.333247
C	-0.0323815213	-3.1595902637	 1.5323384356	 0.227855
N	-0.0317452794	-4.1336222294	 2.1605197357	-0.345745
H	 0.4289598101	 1.9544894712	-0.8397915379	 0.109521
H	-1.0773738399	 1.9067806079	 0.0867459484	 0.138362
H	 0.4733554038	 1.8682924586	 0.9281170439	 0.15078
H	-0.0537622597	 0.4556247965	-2.6888439934	 0.259794
H	 0.8495591388	-0.8923942542	-2.9878811307	 0.255968
H	 0.0063787534	-2.9200665667	-1.2110051544	 0.280375
