18
gdb 71489	2.21041	2.02021	1.73523	1.9889	75.54	-0.2229	-0.0025	0.2205	916.7234	0.147746	-401.87613	-401.86852	-401.867576	-401.90747	31.172	
C	 0.0016733633	 1.484914973	-0.0805668138	-0.531551
C	-0.0080777801	-0.0117953696	-0.0078595555	 0.31724
N	 0.5930883779	-0.8975934256	-1.0795158527	-0.383419
C	 0.0393669983	-1.8523576433	-0.0542709645	-0.093464
C	 0.6056630847	-0.9599439536	 1.0922792572	-0.092149
C	-0.3768203474	-1.0118613777	 2.2470888305	-0.103319
C	-1.5786076615	-1.0171166695	 1.6639233347	-0.198214
C	-1.2493135806	-0.968794134	 0.1792653105	 0.327674
O	-2.2475598068	-0.879881596	-0.7867006317	-0.490065
H	 1.0224118201	 1.8569790299	-0.2105522869	 0.131371
H	-0.6022493236	 1.834303912	-0.9247074269	 0.131119
H	-0.4152397801	 1.9113137156	 0.8376837292	 0.127528
H	-0.0381259262	-0.8912866693	-1.8870736086	 0.209114
H	 0.1152401698	-2.9390719846	-0.1580370193	 0.070961
H	 1.6808850105	-0.9395345868	 1.2550242854	 0.079385
H	-0.1247166682	-1.0274852583	 3.2981253441	 0.108081
H	-2.5675251882	-1.0290704305	 2.1017992535	 0.103654
H	-2.7909811518	-1.6738432918	-0.744815345	 0.286056
