17
gdb 85991	2.43619	1.26917	1.21818	2.9747	70.86	-0.2535	-0.0615	0.192	1143.9503	0.13149	-458.976275	-458.966678	-458.965734	-459.011028	33.692	
C	-0.6923679948	 1.2131561615	-0.4286746428	-0.408475
C	-0.0266704839	-0.1170114332	-0.1230339043	 0.03376
O	 1.1788800547	-0.3642419105	-0.893782728	-0.34132
C	 2.0427851123	-0.4959588443	 0.2595250389	 0.183781
C	 2.6579363816	-1.8770175582	 0.4385757319	-0.436447
C	 3.0865671722	 0.612677004	 0.2820286771	 0.124325
O	 4.056357868	 0.6082024792	 0.99201108	-0.236804
C	 0.8053948013	-0.2080655616	 1.1614870473	 0.290755
O	 0.6065657358	-0.1156554835	 2.330227069	-0.262355
H	-0.0010563714	 2.0472427647	-0.2780499077	 0.129195
H	-1.0326530555	 1.229312276	-1.4678732884	 0.142064
H	-1.5587684808	 1.3533580512	 0.2245395373	 0.141376
H	-0.7399080225	-0.9457829339	-0.2297264811	 0.115448
H	 3.2606565837	-2.1292436578	-0.4385358417	 0.140779
H	 3.3063887027	-1.8639928141	 1.3174469294	 0.16098
H	 1.8870853361	-2.6408729575	 0.5650466371	 0.126211
H	 2.8560829307	 1.4419776682	-0.421738714	 0.096728
