16
gdb 84552	3.74264	1.32724	1.07315	1.9615	70.98	-0.2272	-0.0123	0.2149	1080.2116	0.125171	-437.898674	-437.891179	-437.890235	-437.930968	28.741	
O	 0.1430749587	 1.412024639	-0.1741074273	-0.426154
C	 0.1089013367	-0.0014210192	-0.026847434	 0.068034
C	 0.6498482102	-0.4961994933	 1.3028764798	-0.156301
C	-0.2444094063	-1.2488154011	 1.9516211761	-0.067323
N	-1.4597656305	-1.3746736667	 1.2332011869	-0.120675
C	-1.3394057046	-0.564359398	-0.0177683653	-0.000484
C	-1.7717777267	-1.8066273328	-0.839982229	-0.405028
C	-1.8040602473	-2.5559920067	 0.5054894671	 0.405516
O	-1.9782528422	-3.6771255571	 0.8746178246	-0.31097
H	-0.188309931	 1.7952706687	 0.6462163021	 0.277626
H	 0.6972578723	-0.3742191667	-0.874310646	 0.099641
H	 1.6407797269	-0.2495185052	 1.6596841603	 0.112811
H	-0.1354840204	-1.7608825878	 2.8983030603	 0.140973
H	-2.0484374712	 0.2670672944	-0.0483742068	 0.097678
H	-2.719714347	-1.7381344391	-1.3768592404	 0.140733
H	-1.0072601478	-2.2067292383	-1.5111286584	 0.143921
