21
gdb 76551	2.48715	1.31269	1.14187	2.8285	78.82	-0.2305	0.0601	0.2906	1210.2041	0.180713	-424.191247	-424.181502	-424.180558	-424.225926	35.94	
C	-0.1657793747	 1.4434493028	-0.2273465387	-0.398625
C	 0.0690378521	-0.0501973796	-0.2055560274	-0.142467
C	 1.488136527	-0.6255702437	-0.1706950556	 0.030046
O	 2.5790046335	 0.2332039385	-0.0457093875	-0.436692
C	 0.5939928346	-0.7336819695	 1.0244401057	 0.397548
O	 0.9934369257	 0.032288655	 2.1727953201	-0.323213
C	 0.6405962439	-1.0699586039	 3.0496298989	-0.080565
C	 0.1147337099	-1.9166815632	 1.8656933506	-0.141864
C	-1.3785944005	-2.2156444533	 1.8515010182	-0.40151
H	 0.6301138836	 1.9698808068	 0.3022923301	 0.131291
H	-0.1852493491	 1.8157346872	-1.2565411697	 0.118337
H	-1.1180101457	 1.7027071164	 0.2467354691	 0.112813
H	-0.6380614182	-0.6440172498	-0.7825661266	 0.083404
H	 1.701496709	-1.5075055074	-0.7714460166	 0.091226
H	 2.6566128073	 0.4309210776	 0.8992094804	 0.2941
H	 1.5187645836	-1.466774616	 3.5702954827	 0.108441
H	-0.1137636553	-0.7656303035	 3.7837569464	 0.10821
H	 0.6904991889	-2.8309455222	 1.6946423215	 0.084727
H	-1.9641341932	-1.307161979	 2.026723547	 0.125514
H	-1.6881416226	-2.6323069552	 0.887351953	 0.121622
H	-1.6394374295	-2.9437595477	 2.6268602784	 0.117658
