18
gdb 105987	2.73534	1.59709	1.2294	2.42	74.94	-0.205	0.0621	0.2672	1063.8552	0.146211	-401.824103	-401.816002	-401.815058	-401.856712	31.471	
C	 0.0148789638	 1.4657909273	 0.2435717438	-0.380029
C	-0.0581859663	-0.013644629	-0.1566122965	-0.325143
C	-1.4341274506	-0.5757272923	-0.0519452182	 0.357263
C	-2.3308583565	-0.9482297239	 1.1281098365	-0.272419
C	-3.5307644262	-0.4721071381	 0.2804515056	-0.042272
C	-3.2316687863	-1.4567742333	-0.7937183405	-0.149803
N	-2.6387542937	-0.0720097709	-0.8625180002	-0.204602
C	-1.993670697	-1.9636398767	 0.0147516663	 0.300666
O	-1.3121405919	-3.1456298622	 0.0643641392	-0.450533
H	 1.028096385	 1.8568222616	 0.1123574829	 0.110295
H	-0.6644528884	 2.0633774671	-0.3712644831	 0.137693
H	-0.2714149028	 1.6039630939	 1.2910834577	 0.114588
H	 0.2927414221	-0.1375693773	-1.1895722138	 0.112956
H	 0.6087062673	-0.617416827	 0.4712521304	 0.111076
H	-2.1216266771	-0.9922137267	 2.1878630864	 0.09471
H	-4.4400981934	 0.0668611325	 0.5219848956	 0.094552
H	-3.8348306823	-1.8641396905	-1.597615215	 0.09812
H	-1.8035394957	-3.7679265745	 0.6137037428	 0.292881
