20
gdb 76494	3.26034	1.03031	0.98251	1.494	77.02	-0.2064	0.0503	0.2567	1312.5517	0.169338	-440.222034	-440.212658	-440.211714	-440.256129	35.129	
C	-0.0957684167	 1.5077295159	 0.1328178679	-0.318531
N	-0.0512380361	 0.0638621781	 0.1105913242	-0.068509
C	-1.2643870566	-0.6784132633	 0.5294803855	-0.23656
C	-0.3611091225	-1.6263975771	 1.3175915169	 0.262667
C	 0.7772589763	-0.6238147316	 1.1252280241	-0.251166
C	-0.736831147	-2.4875428878	 2.4899302126	 0.023603
O	-2.0795394741	-2.5929450176	 2.8583107317	-0.437235
C	-0.3135758336	-3.1186931014	 1.1785576502	-0.043233
O	-1.3506116837	-3.6828046932	 0.4127103959	-0.425783
H	 0.8882279015	 1.9140800823	-0.1254603766	 0.118374
H	-0.811821717	 1.8676065755	-0.6138416044	 0.120355
H	-0.389951818	 1.9231499741	 1.1165566994	 0.088733
H	-1.93601868	-0.1037311865	 1.1876797264	 0.094055
H	-1.8443532648	-1.1019916662	-0.2964454315	 0.115075
H	 1.7360506881	-1.002111782	 0.7499533008	 0.099087
H	 0.962385781	-0.0194573257	 2.0294897149	 0.086275
H	-0.0748132236	-2.536734514	 3.3504025908	 0.099712
H	-2.5335848496	-2.9727653284	 2.0928763532	 0.284342
H	 0.6552883404	-3.608374126	 1.0865764161	 0.09191
H	-1.4241476639	-4.6125223453	 0.6568063921	 0.29683
