18
gdb 98632	4.58037	0.93994	0.82614	4.349	74.83	-0.2471	-0.0024	0.2447	1383.9481	0.146952	-439.059246	-439.050663	-439.049719	-439.093248	31.525	
O	 0.094232351	 1.3120398935	-0.2493444937	-0.420818
C	 0.0559489701	-0.0250867013	 0.1544631959	-0.129484
C	-1.3864353853	-0.5292358208	 0.1823129454	 0.34197
O	-2.2991591461	 0.2181373155	-0.1198997423	-0.364706
N	-1.5730493692	-1.8055372134	 0.6668569872	-0.095831
C	-1.0870424612	-3.0338604911	 0.0388295118	-0.054315
C	-1.221265211	-4.1530044087	 1.0799307516	-0.237767
C	-2.758475257	-3.8333186085	 1.1727966532	-0.241817
C	-2.5605976565	-2.7251223469	 0.1288875827	-0.028416
H	-0.8368582822	 1.5544165914	-0.3837800904	 0.294021
H	 0.6439837796	-0.6589227283	-0.5286545515	 0.106041
H	 0.489521028	-0.1582796233	 1.1574447596	 0.120768
H	-0.4240990209	-2.9807320093	-0.816534029	 0.115891
H	-1.0294755685	-5.1418121843	 0.6589877915	 0.115518
H	-0.6297774647	-4.0217930387	 1.988262987	 0.117508
H	-3.3726724405	-4.655699267	 0.8015555408	 0.115702
H	-3.1391569345	-3.5002979965	 2.1402670834	 0.120134
H	-3.2436855611	-2.3738916324	-0.6337371831	 0.125602
