22
gdb 60006	3.99471	0.67004	0.65414	4.9904	83.58	-0.2849	0.0296	0.3145	1802.9552	0.191821	-404.37372	-404.362762	-404.361818	-404.410448	39.32	
C	-0.0664485145	 1.5522695539	-0.164737253	-0.3908
C	 0.0227599716	 0.0248666369	-0.0395269903	 0.041991
C	 0.7323560946	-0.5791037834	-1.2585667941	-0.393019
C	 0.7258262818	-0.4142265911	 1.2583375657	-0.203651
C	-0.0255203247	-0.0586092004	 2.5474319585	 0.117454
O	-1.3502001989	-0.5606644285	 2.5599325096	-0.413889
C	 0.7658069631	-0.5410984696	 3.7873095932	-0.367944
C	 0.1166555151	-0.1897016103	 5.0476194904	 0.270835
N	-0.3865435515	 0.0961649075	 6.0474127425	-0.303662
H	 0.9321456862	 2.0063501661	-0.1572390066	 0.109872
H	-0.5500347058	 1.8343942462	-1.1053092923	 0.116176
H	-0.6474875785	 2.0005864727	 0.6463142783	 0.124507
H	-0.9997409513	-0.3707710344	-0.0038364825	 0.086066
H	 1.7640456013	-0.2148859234	-1.3352984682	 0.112436
H	 0.7695143815	-1.6723320096	-1.2017696101	 0.107873
H	 0.2174626438	-0.3093592477	-2.1861375084	 0.115061
H	 0.8712677302	-1.5053383692	 1.2366630099	 0.083322
H	 1.7323120626	 0.0251208897	 1.2980534892	 0.097555
H	-0.1420282249	 1.0269599057	 2.6253477955	 0.11466
H	-1.3147209413	-1.5159122389	 2.4322587971	 0.28256
H	 0.8876195293	-1.6311353707	 3.7443594795	 0.140512
H	 1.7737219503	-0.1108699218	 3.7782923859	 0.152088
