19
gdb 108485	2.1611	1.64363	1.27246	0.7923	70.6	-0.2389	0.0599	0.2988	1080.3031	0.157692	-460.106921	-460.097935	-460.096991	-460.140973	33.125	
C	-0.1961350007	 1.4666338978	 0.1205253619	-0.269615
O	-0.0421078632	 0.0570734609	 0.0757090222	-0.293224
C	-1.2498245617	-0.6204480193	-0.0228410248	 0.362254
C	-2.1478606923	-0.7269796714	 1.2268586829	-0.148557
O	-2.2292956505	-2.1655473221	 1.0895150335	-0.290741
C	-1.3324291379	-2.1708792836	-0.0441686943	 0.033599
C	-2.1083127228	-2.14016097	-1.3789854002	-0.286456
C	-2.008849441	-0.5784048739	-1.3906279783	 0.059707
O	-3.174365453	 0.1945372554	-1.5282729403	-0.433276
H	 0.8071115066	 1.896314624	 0.1513635733	 0.130831
H	-0.7252340019	 1.8476094276	-0.7632263722	 0.127369
H	-0.7465898061	 1.7857020449	 1.0176742604	 0.112116
H	-1.6296148716	-0.4366422086	 2.1491517967	 0.109398
H	-3.1328560476	-0.2440844633	 1.1983328682	 0.090461
H	-0.4824821209	-2.8433903987	 0.081952422	 0.08601
H	-1.6134370265	-2.623041337	-2.2247174621	 0.111785
H	-3.1224800818	-2.5369812509	-1.2834046346	 0.108163
H	-1.3190830067	-0.2272253411	-2.1635618825	 0.102797
H	-3.8690046403	-0.2052836908	-0.994604892	 0.28738
