19
gdb 78092	2.80065	1.23438	1.02108	3.9379	81.46	-0.2512	0.0298	0.2811	1225.5139	0.15859	-382.045134	-382.036197	-382.035253	-382.078582	33.485	
C	-0.1020346017	 1.5067109451	 0.0029674761	-0.328609
N	 0.1139261074	 0.0730909243	 0.1105996906	-0.112674
C	 1.36917668	-0.5772239847	-0.1551283678	-0.099393
C	 2.5827078368	 0.2553599184	 0.3560491155	-0.180976
C	 1.9393482162	 0.2347475594	 1.787266776	-0.311346
C	 0.7539920702	-0.5862102755	 1.2294164269	 0.336259
C	 0.0210434759	-1.6505097453	 1.9902770077	-0.48635
C	 3.8511541473	-0.4450323456	 0.2663487053	 0.268323
N	 4.8517101152	-1.0197622297	 0.1869599699	-0.326026
H	 0.7060509076	 2.138315935	 0.4002946886	 0.107743
H	-0.2446110592	 1.7618263845	-1.0513230597	 0.132933
H	-1.0203462192	 1.7624483016	 0.5396121506	 0.130962
H	 1.4320026309	-1.3439940151	-0.9198300585	 0.112394
H	 2.6904794346	 1.2417552965	-0.1055259653	 0.122149
H	 2.5448258622	-0.3365707605	 2.4921351547	 0.135463
H	 1.7097655023	 1.2095565121	 2.2258815366	 0.1114
H	-0.5933790887	-1.2100178589	 2.784622153	 0.124307
H	-0.6413632628	-2.2052056288	 1.3213569328	 0.136959
H	 0.7195168049	-2.3515683128	 2.4585903969	 0.126481
