15
gdb 45574	3.42389	1.506	1.30439	5.3197	60.54	-0.2811	0.0406	0.3217	963.191	0.115182	-494.956205	-494.949589	-494.948645	-494.987746	25.023	
O	 0.0022312851	-0.0335672032	-0.0417339842	-0.36606
C	-0.0137078965	 1.1532609073	-0.020682365	 0.498604
O	-1.1392377149	 1.9138938731	-0.0002579184	-0.249534
C	-0.8194682553	 3.3018565637	 0.0702206183	 0.06258
C	-1.1626409364	 3.8913701288	 1.4435782315	-0.110834
O	-0.0168270786	 3.6610463125	 2.2473131261	-0.240142
C	 1.0997341056	 3.9223273295	 1.41247733	-0.110834
C	 0.7352046271	 3.3231175345	 0.0488560066	 0.062582
O	 1.0907424277	 1.9443863039	-0.0308726482	-0.249534
H	-1.3053953922	 3.8134939912	-0.7621837964	 0.110266
H	-1.3660273872	 4.9701480376	 1.3428866814	 0.099769
H	-2.0221819479	 3.4019763554	 1.9044188083	 0.141551
H	 1.2706818564	 5.0062278851	 1.3066298118	 0.099769
H	 1.9846849317	 3.4568142069	 1.8493416881	 0.141551
H	 1.1839100054	 3.8475179237	-0.7964032898	 0.110266
