20
gdb 57876	2.59881	1.22579	0.93018	3.4474	80.67	-0.2394	0.005	0.2444	1317.1173	0.170046	-436.496581	-436.485969	-436.485025	-436.532587	36.685	
C	 1.7109995158	 1.1859774703	 0.5118305453	-0.324947
N	 1.6087461194	-0.2430370833	 0.2482649891	-0.121866
C	 2.551094843	-1.0599247316	 1.0055257654	-0.349691
C	 1.1466379892	-0.5944144528	-1.0074466103	 0.454558
O	 0.9880640281	 0.2136150061	-1.9027905402	-0.392967
N	 0.8316041612	-1.9569659601	-1.183945149	-0.12188
C	 0.7802294027	-2.4789685717	-2.5486311839	-0.324906
C	 0.2728380421	-2.7260487647	-0.1783210244	 0.067862
N	-0.1020678737	-3.9245239233	-0.3935232675	-0.470342
H	 2.6669003723	 1.5999056188	 0.1616753236	 0.123785
H	 0.9055225821	 1.7090055019	-0.0010205538	 0.157399
H	 1.6329948219	 1.3551431157	 1.5905126866	 0.118571
H	 2.2486659492	-1.1387484987	 2.056501443	 0.127376
H	 2.6220279569	-2.0616954131	 0.5860243504	 0.156578
H	 3.5519661533	-0.6070849339	 0.9747010758	 0.127445
H	 1.3334618915	-3.4192121521	-2.6008495495	 0.140178
H	-0.2533577573	-2.679991958	-2.8444350545	 0.14064
H	 1.2122553059	-1.7334240111	-3.2122469301	 0.15181
H	 0.1714464954	-2.1845048439	 0.7645871685	 0.115408
H	-0.5139123389	-4.3169906444	 0.4505436054	 0.22499
