19
gdb 121222	2.50383	0.93612	0.72889	2.6453	72.83	-0.2505	-0.0341	0.2163	1531.9554	0.157202	-460.139049	-460.129253	-460.128309	-460.175441	33.715	
O	-0.0325267182	 1.3975186717	 0.1063716741	-0.421366
C	-0.0014630328	-0.0200728736	 0.0687968646	-0.078698
C	-1.4422919309	-0.5085464388	-0.0399918903	-0.199473
C	-1.5195072941	-2.022854951	-0.0994640284	 0.128478
O	-1.0868062098	-2.6640252995	 1.1240554517	-0.286818
C	-2.2522934322	-3.5051465259	 1.1476449798	-0.089637
C	-2.9003463973	-2.7549940784	-0.0415280885	-0.173074
C	-4.0922774816	-1.9105556071	 0.3270328541	 0.163019
O	-5.0750089483	-1.7877363575	-0.357748285	-0.251742
H	 0.8643066081	 1.7142190521	 0.2474434728	 0.287812
H	 0.5795302243	-0.385662646	-0.7944796704	 0.084765
H	 0.4562508573	-0.4405096774	 0.9761333364	 0.110465
H	-2.0042891162	-0.1270919792	 0.8181313427	 0.112859
H	-1.8970424124	-0.0882911285	-0.9456974668	 0.119237
H	-0.9250529432	-2.3910534003	-0.9491760905	 0.083573
H	-2.015137789	-4.5549967149	 0.936706139	 0.112381
H	-2.7829466437	-3.4442943853	 2.1060644412	 0.111675
H	-3.1458465868	-3.3483153602	-0.9224095402	 0.101413
H	-4.0143760632	-1.3996944203	 1.3141964936	 0.08513
