21
gdb 65479	3.50171	1.06907	0.96164	0.6655	89.82	-0.252	0.0542	0.3062	1314.8253	0.180738	-349.901477	-349.89224	-349.891295	-349.935125	36.326	
C	-0.1988610027	 1.5737694891	-0.0240438307	-0.445509
C	-0.0327329496	 0.0472829742	-0.0018348757	 0.156071
C	 1.1708799533	-0.4333575194	-0.896533687	-0.336491
C	 2.0186630348	-0.5571104738	 0.3735466227	 0.396016
C	 3.2442921958	-1.3872493842	 0.5952234663	-0.341214
C	 3.3353702897	 0.1228739243	 0.6204109897	-0.316229
C	 0.7730212539	-0.4453188873	 1.2584308957	-0.336489
C	-1.3003037011	-0.6217063013	-0.23954411	 0.260604
C	-2.3487429792	-1.1783626283	-0.4362655593	-0.455373
H	 0.7641631476	 2.0615982058	 0.1564656167	 0.11901
H	-0.579593122	 1.9086668128	-0.9936259209	 0.123427
H	-0.9013759101	 1.8990054441	 0.7491942331	 0.123427
H	 0.9673130106	-1.396312884	-1.3718833029	 0.109199
H	 1.5025493252	 0.2783701253	-1.6583721226	 0.100628
H	 3.33779348	-1.9205130733	 1.5362403203	 0.111748
H	 3.6686910612	-1.9105811588	-0.2560311637	 0.111748
H	 3.8207135074	 0.6190987962	-0.2145183	 0.110803
H	 3.4896168623	 0.6091591561	 1.5788673753	 0.110804
H	 0.8093780113	 0.2575126546	 2.0960862076	 0.100627
H	 0.4150471961	-1.4129212715	 1.6193774728	 0.109198
H	-3.2728573744	-1.6713666603	-0.6097644574	 0.187996
