17
gdb 94983	2.76641	1.77947	1.36005	0.9736	67.62	-0.2417	0.0445	0.2863	953.2383	0.135982	-458.849926	-458.842638	-458.841694	-458.881661	28.871	
O	-0.0206615455	 1.4218388443	 0.2259119241	-0.417948
C	-0.0235633522	 0.0247860779	 0.0312313852	-0.093925
C	 0.614068718	-0.6498253149	 1.3172173291	-0.082209
O	-0.1812881425	-1.7926061265	 1.7340209349	-0.285017
C	-1.0446954926	-2.0544354054	 0.6503415447	 0.092154
C	-2.602403102	-1.8662410245	 0.5764720277	-0.022233
C	-2.4560033231	-0.4561672177	 1.153083526	-0.259925
C	-1.3456245517	-0.6898049885	 0.0902561845	 0.410412
O	-2.3650005749	-1.307284202	-0.8033579791	-0.38443
H	-0.3483126917	 1.8388447425	-0.5773362012	 0.292667
H	 0.5397888047	-0.2630074922	-0.867609867	 0.092401
H	 1.6380142093	-0.9790812289	 1.1133045995	 0.115734
H	 0.6277933607	 0.0841758279	 2.1275250937	 0.131571
H	-0.6610920973	-2.8070098602	-0.046167507	 0.084814
H	-3.4107089978	-2.5932599847	 0.6552858431	 0.097986
H	-3.2323180113	 0.2490550272	 0.8576571197	 0.106159
H	-2.14553744	-0.3596047043	 2.1930008421	 0.121789
