22
gdb 8316	5.9648	0.86989	0.83079	0.8561	80.04	-0.2496	0.0904	0.34	1480.5712	0.199337	-350.190118	-350.180764	-350.17982	-350.224608	33.849	
C	 0.0283392637	 1.3913909931	-0.0342379423	-0.2225
O	 0.1240740954	-0.0109548985	-0.0513225643	-0.232971
C	 0.5392541502	-0.5510964142	 1.1860298732	-0.0719
C	 0.6351608064	-2.0552870298	 1.0523187297	 0.029117
C	 1.757155218	-2.6586596517	 0.1650200846	-0.2307
C	 1.954587508	-3.7726412156	 1.232280604	 0.06006
C	 3.3617925291	-4.2464902406	 1.5594973087	-0.406447
C	 1.2058049201	-2.8634142254	 2.2496095297	-0.259522
H	 0.9967299054	 1.8663880859	 0.1925703569	 0.100507
H	-0.2963106983	 1.7118655311	-1.0274960971	 0.124524
H	-0.7047889666	 1.7440336529	 0.7094282514	 0.100448
H	 1.5198789024	-0.1322353514	 1.4767207471	 0.075087
H	-0.175123121	-0.2786203656	 1.9841747508	 0.080274
H	-0.3418397362	-2.4470185669	 0.7506245581	 0.076771
H	 1.4999295505	-2.9585955682	-0.8531282069	 0.097825
H	 2.6265339878	-1.9921156293	 0.1211977319	 0.09154
H	 1.3232882379	-4.6334249182	 0.9826186938	 0.06967
H	 4.0111805838	-3.4010594507	 1.8150018717	 0.108235
H	 3.364049811	-4.9371927354	 2.4105788856	 0.111632
H	 3.8144634872	-4.7674380545	 0.708100878	 0.11306
H	 1.912651469	-2.2627819558	 2.8347839064	 0.091754
H	 0.4979059661	-3.3322135712	 2.9380420792	 0.093535
