13
gdb 124375	5.13767	1.01805	0.95676	5.0033	61.71	-0.2743	-0.0431	0.2312	1197.6151	0.086777	-489.883443	-489.875297	-489.874352	-489.917768	27.752	
C	-0.1163310488	 1.4765838999	-0.0980050947	-0.486328
C	 0.3512692042	 0.0511112854	-0.0778641027	 0.412672
O	 1.2370364058	-0.430693787	 0.5541584951	-0.286386
O	-0.4341564533	-0.7000571094	-0.9662678534	-0.281151
C	-0.2321000507	-2.029087575	-1.0187207164	 0.509324
C	 0.1736912536	-2.8252022027	-2.0439601502	-0.215877
N	 0.0980493362	-4.1106429095	-1.5753062465	-0.098028
N	-0.3069355048	-4.1434665588	-0.3875273947	 0.002256
O	-0.5459786808	-2.7712166406	 0.0295735834	-0.205052
H	 0.5368698767	 2.0784307193	 0.531705308	 0.164166
H	-0.1171267603	 1.8581348733	-1.1223411578	 0.164293
H	-1.1447669643	 1.5293416994	 0.2712558594	 0.169427
H	 0.4986929666	-2.5777722542	-3.0384111695	 0.150685
