15
gdb 30031	3.43817	1.6627	1.12871	3.7573	74.29	-0.1952	-0.0076	0.1877	1012.739	0.115529	-416.833604	-416.826599	-416.825654	-416.86518	26.614	
C	 0.0219703885	 1.4564405153	 0.0186078925	-0.349154
N	 0.0049877297	 0.0124247494	 0.0198339902	-0.178316
C	-0.0609423583	-0.82650782	-1.0839415903	-0.001386
N	-0.0615241775	-2.1049286791	-0.83027621	-0.366599
C	 0.009969171	-2.1586607579	 0.5584872398	 0.207124
C	 0.056270713	-3.0165473345	 1.6196986994	-0.112521
O	 0.1240055907	-2.2836974798	 2.7674221677	-0.153423
C	 0.1226384346	-0.9456154686	 2.4638158972	-0.137821
C	 0.0526562043	-0.8361398395	 1.1101576972	 0.255925
H	 0.9414085524	 1.8403315936	 0.474684401	 0.143152
H	-0.0280007722	 1.8125549062	-1.0126362783	 0.144341
H	-0.8354194674	 1.8612370761	 0.5679106344	 0.14316
H	-0.1078632692	-0.3964958526	-2.0769101196	 0.130715
H	 0.0517275102	-4.0853154533	 1.7419481738	 0.141599
H	 0.1724604301	-0.2718599052	 3.299925705	 0.133204
