19
gdb 54277	2.19916	1.39691	1.03582	2.4842	81.28	-0.2434	-0.0117	0.2318	1217.9349	0.156254	-385.868227	-385.858591	-385.857646	-385.902899	35.911	
C	-1.7790218366	-0.1753120982	 0.3729925659	-0.506911
C	-0.3730952588	-0.71272822	 0.1891526257	 0.334389
O	 0.3191005551	-1.0001906361	 1.1439677912	-0.319382
C	 0.1406150224	-0.9167155616	-1.2144802514	 0.248885
C	-0.6827417201	-0.4185255255	-2.4020200612	-0.471821
C	-0.7336951338	 1.037533643	-2.5200171599	 0.320312
C	-0.764614607	 2.2361343179	-2.6070803351	-0.451153
C	 1.6532696197	-0.9126706468	-1.3536716575	-0.272894
C	 0.9272674249	-2.2143274839	-1.4011161853	-0.297064
H	-1.895184901	 0.7906579527	-0.1280576705	 0.157417
H	-2.5109259645	-0.8587881637	-0.073793766	 0.136567
H	-1.9842004234	-0.0741225487	 1.4388696879	 0.140365
H	-0.2492479921	-0.8302421692	-3.3214155743	 0.132156
H	-1.7037871173	-0.8174189564	-2.3539282259	 0.132917
H	-0.7913220939	 3.2943831252	-2.6913071212	 0.200905
H	 2.0559548475	-0.502543967	-2.2732491026	 0.11973
H	 2.2074198541	-0.6841181676	-0.4515934625	 0.141674
H	 0.9947990785	-2.8569371845	-0.5314234546	 0.138969
H	 0.8176791062	-2.7235039094	-2.3526787729	 0.114937
