18
gdb 90201	2.99122	1.77296	1.58065	1.198	75.85	-0.2126	0.0552	0.2678	926.0836	0.147126	-401.76871	-401.761532	-401.760587	-401.799851	29.462	
C	-0.4325398584	 1.4015985306	-0.0149534129	-0.402213
C	 0.0307228056	-0.0500535414	-0.0102306271	-0.077922
C	 1.3200063676	-0.3616919981	-0.8822013198	-0.324554
C	 2.156947587	-0.4285255596	 0.4234671084	 0.16619
N	 2.6027799777	 0.7892534697	 1.1875080004	-0.369528
C	 1.9415121979	-0.0471250739	 2.2382225933	-0.135105
C	 2.3286569114	-1.4511334687	 1.5881147582	 0.028692
O	 0.9673781687	-1.9410763336	 1.5131838002	-0.347313
C	 0.8453631151	-0.5046299656	 1.2336457358	 0.349722
H	 0.3970895405	 2.0750209116	 0.2129510479	 0.14854
H	-0.835286402	 1.6669213439	-0.998441255	 0.113817
H	-1.2204735768	 1.5616958103	 0.7280814408	 0.119567
H	-0.8064240547	-0.7271541247	-0.2003789721	 0.097218
H	 1.2680777246	-1.3171018734	-1.406581353	 0.126214
H	 1.6273523919	 0.4205726533	-1.5792819825	 0.118612
H	 3.6182292408	 0.7944363506	 1.3067870408	 0.214194
H	 1.8945768317	 0.2417277692	 3.2936842766	 0.086023
H	 3.1181400115	-2.1648781901	 1.8507332899	 0.087847
