14
gdb 31388	3.09612	1.25703	0.90249	5.1595	66.17	-0.2523	-0.0458	0.2065	1191.3305	0.101396	-473.861377	-473.85363	-473.852686	-473.894261	27.997	
O	 0.5035595001	 0.6567426312	-0.8419238544	-0.393021
C	-0.1339287521	 0.2975281119	 0.3580804123	-0.152124
C	-1.4493636861	-0.4047717311	 0.1416409916	 0.338218
C	-1.9656264384	-0.8144094967	-1.0255531824	-0.325176
C	-3.2734466978	-1.4740743693	-1.0702954476	 0.396758
O	-3.8073696907	-1.8541552663	-2.0862563819	-0.335302
N	-3.906909931	-1.6508911757	 0.198595725	-0.297425
C	-3.3203713732	-1.2297694579	 1.2388867265	 0.123476
O	-2.1164942708	-0.5981958889	 1.317066672	-0.216741
H	-0.0095183191	 1.3564947748	-1.2601549217	 0.297005
H	 0.547768447	-0.3796291913	 0.8867610467	 0.151232
H	-0.3038519823	 1.1548916828	 1.0279957825	 0.124531
H	-1.4137571236	-0.668326384	-1.9440680782	 0.135392
H	-3.7460765722	-1.3347798995	 2.2334249197	 0.153177
