21
gdb 26112	2.47125	1.27124	1.03401	3.4092	85.66	-0.2059	0.0396	0.2455	1282.0934	0.18275	-383.32918	-383.319384	-383.31844	-383.364432	35.819	
C	-0.0391971545	 1.6041449069	 0.0267672268	-0.380342
C	 0.0088712809	 0.0638017218	 0.0598842665	-0.095436
C	 0.8002489099	-0.4378119839	 1.2838812739	-0.380345
C	-1.3601634295	-0.5458647897	-0.0162312513	 0.252624
C	-1.9732938646	-1.3650075051	-0.9374250218	 0.182445
C	-1.4265468758	-1.9248044157	-2.2119060368	-0.492724
N	-3.2668357813	-1.6534793274	-0.5422038238	-0.30923
C	-3.4382357821	-1.0245498717	 0.5939078513	-0.002966
N	-2.3207474947	-0.3385388496	 0.9620285914	-0.303061
H	 0.9718490912	 2.0244408833	 0.0198371171	 0.113862
H	-0.5682638044	 1.962826647	-0.860457107	 0.124616
H	-0.5545721314	 2.0062175263	 0.90715771	 0.10187
H	 0.5427510759	-0.2690557951	-0.8372855122	 0.090435
H	 0.3230868987	-0.1286755744	 2.2214912842	 0.10187
H	 0.8673143804	-1.5292344329	 1.289404707	 0.124616
H	 1.8160355475	-0.0290473699	 1.2840448484	 0.113863
H	-1.445829747	-3.020083495	-2.1991497113	 0.131322
H	-2.0273806219	-1.6048383569	-3.0702728247	 0.131319
H	-0.3947323754	-1.6075370256	-2.3852972338	 0.113407
H	-4.3372995228	-1.0255307927	 1.192707504	 0.122604
H	-2.2099480494	 0.2182034301	 1.792434832	 0.25925
