19
gdb 68346	2.81023	1.54222	1.18193	3.371	83.84	-0.2441	-0.0574	0.1867	1083.6244	0.159514	-385.881773	-385.873818	-385.872874	-385.914103	31.26	
C	 0.0233568252	 1.5721345496	 0.0420481749	-0.489458
C	 0.0256376001	 0.0612087799	 0.0345548982	 0.211944
C	 0.9480523941	-0.7841250009	-0.9189615869	-0.242581
C	 0.5991284155	-1.9239243439	 0.1026355864	-0.079199
C	 0.6598095641	-0.795004067	 1.1918595234	-0.242581
C	-0.9051643221	-2.0090105513	-0.1032183089	-0.160178
C	-1.295641068	-0.7199402425	-0.1499021215	 0.2419
C	-2.6524188687	-0.2318390336	-0.3326611928	 0.030875
O	-2.9890853067	 0.9338832674	-0.3726645294	-0.289441
H	 1.0398838019	 1.9549657874	 0.1824913299	 0.102784
H	-0.3697984418	 1.9723903632	-0.8964806301	 0.132155
H	-0.6070143118	 1.9633729271	 0.8452838656	 0.132131
H	 0.6241635217	-0.9152327117	-1.9543898332	 0.097868
H	 1.9987139262	-0.4802779021	-0.8753598652	 0.098849
H	 1.1735743335	-2.8455569115	 0.1763280458	 0.070413
H	 1.6832759468	-0.4921907721	 1.4346233083	 0.098849
H	 0.070350811	-0.9361288971	 2.1011599723	 0.097867
H	-1.5071212027	-2.9043980283	-0.1900394024	 0.120697
H	-3.4043857983	-1.0473265825	-0.4395906941	 0.067108
