19
gdb 99178	4.31048	0.79712	0.77992	2.2299	72.94	-0.2469	0.0153	0.2622	1548.1931	0.157905	-460.176035	-460.166383	-460.165439	-460.21275	32.889	
C	-0.4637170778	 1.2340241022	-0.2492645012	-0.240317
O	-0.243689943	-0.1780493552	-0.3671174818	-0.22701
C	 0.9001343384	-0.5301966501	-0.9834325993	 0.452453
O	 1.7029362397	 0.2609964828	-1.411254388	-0.363924
C	 1.0531516961	-2.0382033177	-1.0494999928	-0.342236
C	 1.5548243384	-2.4870586896	-2.4137182624	 0.175428
C	 1.676650045	-4.0044945927	-2.6739665841	-0.305692
C	 0.6947896039	-3.7360809337	-3.831998353	-0.057202
O	 0.5388233306	-2.3571698883	-3.4374010938	-0.293187
H	 0.3387773941	 1.7031326634	 0.325625107	 0.139381
H	-0.5053315712	 1.698984221	-1.2372402509	 0.145028
H	-1.4180686764	 1.3433268131	 0.2657994095	 0.132391
H	 1.7940412763	-2.3225279298	-0.2906638238	 0.131578
H	 0.1084545068	-2.5277127688	-0.8027947172	 0.122898
H	 2.4474027367	-1.907164084	-2.6771876967	 0.098945
H	 2.6677382884	-4.3677697659	-2.9486700367	 0.113367
H	 1.273301438	-4.6290757102	-1.8737605145	 0.109721
H	 1.128475636	-3.8259602621	-4.8361207099	 0.103389
H	-0.2562284499	-4.2804626542	-3.8078464604	 0.104989
