19
gdb 84929	2.45673	1.58535	1.0989	4.099	77.4	-0.2485	0.0032	0.2517	1139.4933	0.160225	-423.070092	-423.061784	-423.06084	-423.102904	31.913	
C	-1.2073451571	 0.5607188795	 0.1506149916	-0.408521
C	 0.2750843249	 0.1904962279	 0.0342769353	-0.189415
C	 0.8579827403	 0.6646214078	-1.2893037482	-0.041234
C	 2.1367833182	 0.6999170376	-1.6624098634	-0.064724
C	 3.3313085561	 0.2526617904	-0.8661700568	-0.257473
C	 2.9985771743	-0.4584583326	 0.4391142458	-0.090231
O	 2.3467263847	 0.4025672322	 1.3782588406	-0.228135
C	 1.0486872224	 0.7678551204	 1.2270158846	 0.431693
O	 0.5633754815	 1.5156097571	 2.0302886986	-0.316626
H	-1.3359972633	 1.6455693747	 0.1264912292	 0.1388
H	-1.768464074	 0.1206102401	-0.6793791602	 0.1087
H	-1.6293584952	 0.1992032985	 1.0902172245	 0.129213
H	 0.3561049659	-0.9037564074	 0.0903366369	 0.111971
H	 0.1138868432	 1.0343626066	-1.9910293009	 0.097408
H	 2.36527564	 1.0992610956	-2.6483964695	 0.094428
H	 3.9443016884	-0.4250550154	-1.4768218498	 0.11477
H	 3.9746928534	 1.1164784772	-0.6470097496	 0.12966
H	 2.4008495801	-1.3580581911	 0.2561022866	 0.115434
H	 3.9158525762	-0.7687307892	 0.9446814847	 0.124282
