20
gdb 60281	3.5236	0.79127	0.70457	4.9975	85.31	-0.2561	-0.0396	0.2165	1640.3321	0.169167	-399.348715	-399.338074	-399.337129	-399.385035	38.113	
C	 0.2168130799	 1.5437892757	 0.3714160107	-0.374208
C	 0.0678446278	 0.0385194765	 0.1204217921	 0.033904
C	-1.4010494971	-0.3977712759	 0.1828209644	-0.3856
C	 0.6850090697	-0.3699020546	-1.2372700538	-0.182451
N	 2.0988807514	-0.0445511585	-1.3258968362	-0.257134
C	 2.9617343177	-0.9206132739	-0.9933830355	 0.263871
N	 2.7737066589	-2.2280703719	-0.5803196729	-0.556132
C	 4.3648089388	-0.5525334421	-1.1013919729	 0.269572
N	 5.4885341949	-0.2903571704	-1.1666561554	-0.31893
H	 1.2630655023	 1.8521084582	 0.3144267121	 0.135964
H	-0.342272154	 2.1161955783	-0.3783424247	 0.114057
H	-0.174031117	 1.8152039133	 1.3573311566	 0.10838
H	 0.6189941804	-0.4943215718	 0.909551717	 0.065338
H	-1.9886728941	 0.0982191459	-0.5985063686	 0.119657
H	-1.5116414064	-1.4791640067	 0.0459450631	 0.105238
H	-1.8459152085	-0.1344901064	 1.1475928766	 0.117113
H	 0.4819198611	-1.4366712726	-1.4269722196	 0.083682
H	 0.1732378895	 0.1884398611	-2.0304973989	 0.112393
H	 1.8805146408	-2.4691567978	-0.1838924166	 0.271212
H	 3.5620087437	-2.7001704163	-0.1677401875	 0.274074
