23
gdb 72225	2.39566	1.85939	1.30017	0.2013	88.99	-0.2404	0.0893	0.3298	1090.688	0.20718	-351.153027	-351.144608	-351.143664	-351.185199	34.391	
C	-0.0442656734	 1.5265401327	 0.0214832225	-0.505075
C	 0.0155932897	 0.0236136825	 0.0079135798	 0.311505
C	-0.0995418265	-0.7938051034	-1.2852438471	-0.287145
C	-0.6597288158	-1.9898945465	-0.4521171014	-0.039735
C	 0.4688631189	-2.9577150875	-0.075247607	-0.203581
C	 1.4816494064	-2.0491603007	 0.6686154105	-0.289168
C	 0.6563981296	-0.8290849627	 1.1082311702	 0.31618
C	 1.0432711734	-0.1630485459	 2.4095959963	-0.496339
C	-0.7998986228	-1.0280124878	 0.7576107607	-0.168378
H	 0.8594631642	 1.9595153583	-0.4260763586	 0.115602
H	-0.9005291583	 1.8844293284	-0.5625771882	 0.113454
H	-0.1388658414	 1.9374561338	 1.0300123538	 0.116562
H	-0.863079622	-0.3646652808	-1.9414691182	 0.091957
H	 0.8084422501	-0.9722794626	-1.875249388	 0.080109
H	-1.5600073588	-2.4638019637	-0.8441318071	 0.060812
H	 0.0895689477	-3.7377882487	 0.5951753317	 0.091946
H	 0.9030927706	-3.4558167316	-0.9487598314	 0.090109
H	 1.915219329	-2.5533973723	 1.5386849707	 0.090034
H	 2.3202432193	-1.7604548156	 0.0247586911	 0.095095
H	 2.0211845003	 0.3281903427	 2.3372111747	 0.114705
H	 0.3170992953	 0.5914833988	 2.7238688555	 0.115566
H	 1.1089624163	-0.9062775908	 3.2127032892	 0.113475
H	-1.6285048121	-0.9226361666	 1.4478103006	 0.072308
