15
gdb 6364	5.53901	1.06088	0.90736	5.2263	59.79	-0.2415	-0.0063	0.2352	1217.5818	0.118819	-433.174037	-433.164964	-433.164019	-433.208966	31.093	
N	 0.3408598079	 1.371320155	-0.0416746939	-0.48459
C	-0.011434773	-0.0224898892	 0.1402367051	-0.279274
C	-1.5032686644	-0.3442673143	-0.0748834118	 0.398615
O	-2.3216557854	 0.5065492278	-0.313714889	-0.309859
N	-1.7818459009	-1.7072879277	 0.0282889707	-0.401739
C	-3.0556705	-2.3144590618	 0.0500850929	 0.466499
N	-2.9573755892	-3.6976768357	-0.011467518	-0.566297
O	-4.0962519231	-1.7217972883	 0.1678623555	-0.328943
H	 0.0856767237	 1.6526681354	-0.9847756942	 0.237133
H	-0.2555904373	 1.9354973767	 0.5583983173	 0.241179
H	 0.587332037	-0.6427910794	-0.5403909091	 0.122131
H	 0.2614896206	-0.3382762435	 1.1566446935	 0.132328
H	-0.9938626089	-2.3112113262	 0.2103389698	 0.252026
H	-2.2163922989	-4.1031692515	-0.5634215304	 0.25218
H	-3.8543906782	-4.1446852672	-0.1300538183	 0.268609
