17
gdb 29882	3.12833	1.39226	0.97524	8.2194	79.19	-0.2239	-0.0192	0.2047	1176.4268	0.137156	-418.06964	-418.061316	-418.060372	-418.102695	30.718	
C	-0.0322093857	 1.4864686963	 0.0011304524	-0.350305
N	-0.0077732155	 0.0296913381	 0.0314632211	-0.124089
C	-0.0305872749	-0.6825931478	-1.1434383865	 0.095323
N	-0.0138446458	-1.9577888051	-1.2721796886	-0.331155
C	 0.0325810143	-2.7647303441	-0.1081621943	 0.379004
O	 0.0516230213	-3.9776978341	-0.1836147171	-0.368153
C	 0.0588023152	-2.0372546512	 1.1608921431	-0.295619
C	 0.0388520821	-0.6869623748	 1.2233430774	 0.369768
C	 0.0644566557	 0.0831408756	 2.5110576009	-0.494253
H	 0.8641348439	 1.9109131367	 0.4628504247	 0.14874
H	-0.0677768303	 1.8104901861	-1.0399232962	 0.151714
H	-0.9133910226	 1.8821925625	 0.5146483692	 0.148739
H	-0.0666499998	-0.0561579961	-2.0351248453	 0.123962
H	 0.0953387281	-2.6214206952	 2.0722326515	 0.110683
H	 0.1003478413	-0.6125037268	 3.3501036227	 0.150562
H	 0.9390160756	 0.7400957826	 2.5759100594	 0.142535
H	-0.8253427228	 0.7118282174	 2.6279353457	 0.142544
