14
gdb 130034	3.45013	1.5939	1.09856	2.8632	69.27	-0.233	-0.02	0.213	1010.9169	0.104038	-432.865294	-432.8586	-432.857656	-432.896233	26.254	
N	-0.0523021305	 1.3740748705	 0.1309149731	-0.571508
C	 0.0014786415	 0.0083406878	 0.0321071025	 0.263339
N	-1.0552392141	-0.743841137	 0.0180207304	-0.324869
C	-0.6341131363	-2.1525471132	-0.0086756627	-0.287552
C	 0.8613532732	-2.0622273847	-0.0277823304	 0.364073
C	 1.2521118214	-0.7611641436	 0.0016014548	 0.128599
C	 2.6671833441	-0.8494045623	-0.0025242686	-0.158671
N	 3.0711973821	-2.101232238	-0.0364377192	-0.133616
O	 1.892239253	-2.8928626678	-0.0506722284	-0.225516
H	 0.7111443086	 1.8934408994	-0.2719791247	 0.256411
H	-0.9654714552	 1.7690532831	-0.0418186952	 0.261903
H	-1.0110645978	-2.6898409306	 0.8705054149	 0.14572
H	-1.0416107818	-2.6599022502	-0.8915727723	 0.144295
H	 3.4230713018	-0.0767370134	 0.0177855757	 0.137391
