17
gdb 35590	4.72882	0.89388	0.77796	0.3967	91.03	-0.2306	-0.0213	0.2092	1422.5198	0.13465	-347.506975	-347.4983	-347.497356	-347.540372	33.067	
C	-0.6940589603	-1.0055130067	-0.7812715386	-0.453361
C	-0.3023435054	 0.045310775	-0.3476741107	 0.306312
C	 0.1766867669	 1.3093911044	 0.1897356433	-0.170032
C	-0.4244961718	 1.6919926327	 1.5781081159	-0.260666
C	 0.6862540314	 2.4771723953	 2.2196232952	-0.175905
C	 1.858938161	 2.3165661208	 1.5870102325	 0.196806
C	 1.7189202578	 1.3781044795	 0.397782653	-0.323558
C	 3.1056737078	 2.8748563176	 1.9561090611	 0.185534
C	 4.1891586241	 3.328883396	 2.2254404042	-0.401996
H	-1.0413668798	-1.9310652331	-1.1685563752	 0.194467
H	-0.0920786005	 2.1105515249	-0.5095908836	 0.112953
H	-1.3575861923	 2.2558310361	 1.4781884295	 0.116981
H	-0.6623231301	 0.7947221366	 2.1655762428	 0.126235
H	 0.5508496672	 3.0679768507	 3.1176467486	 0.104396
H	 2.1333053689	 0.3915323506	 0.6372890938	 0.127837
H	 2.2410046598	 1.7371933972	-0.4931469893	 0.122002
H	 5.1369301654	 3.7355045725	 2.4776845475	 0.191996
