19
gdb 33824	4.18398	1.08362	0.99689	0.793	89.	-0.2283	0.0402	0.2685	1244.6427	0.158349	-348.679548	-348.671286	-348.670342	-348.712062	33.123	
C	 0.0598334777	-1.196312995	-0.0493777402	-0.40808
C	 0.0416557308	 0.0072167012	-0.0115814935	 0.164599
C	 0.0026369311	 1.4265593281	 0.0584591234	 0.204232
C	 0.2654350184	 2.3175269304	-1.1383745473	-0.320985
C	 1.1714991875	 2.4476997771	 0.0479384231	-0.185698
C	 0.4815643464	 3.2346288086	 1.1420471163	 0.398423
C	 1.143127116	 3.8440063113	 2.3382537597	-0.33763
C	 0.4518156151	 4.7257381342	 1.3182082761	-0.323984
C	-0.6960844426	 2.2385303574	 1.1727410497	-0.375856
H	 0.0789861793	-2.2568478372	-0.0874765031	 0.182119
H	 0.684359156	 1.8055909278	-1.9978639124	 0.124549
H	-0.4382116106	 3.1113795328	-1.3780429823	 0.111409
H	 2.2324313825	 2.2337420619	-0.0059797576	 0.099166
H	 0.6721626246	 3.712899533	 3.3074788833	 0.113205
H	 2.2281819482	 3.8581523985	 2.370073605	 0.113792
H	 1.069565902	 5.3341755694	 0.6654512907	 0.113119
H	-0.4891482554	 5.1870538294	 1.6007399176	 0.112478
H	-1.689044775	 2.625112149	 0.9199009226	 0.098299
H	-0.753963612	 1.6840452018	 2.112071969	 0.116844
