18
gdb 6524	2.79999	1.96427	1.37592	3.4841	69.38	-0.2512	-0.0365	0.2147	955.8103	0.149176	-384.942718	-384.933257	-384.932313	-384.976575	33.607	
C	-0.0943576699	 1.4751452785	-0.0647344687	-0.454361
C	-0.0094294071	-0.0314704767	 0.0872253921	 0.339956
C	-1.125982564	-0.7769844503	-0.6151776418	-0.469277
O	 1.2921522158	-0.6027389511	-0.061404356	-0.301332
C	 0.7257691165	-0.6401274219	 1.2490015418	 0.230116
C	 1.4106479521	 0.178921211	 2.3268396138	-0.484516
C	 0.3148074448	-2.0050163532	 1.7416357331	 0.113047
O	 0.2272378476	-3.0001520005	 1.0700391208	-0.25014
H	 0.769569172	 1.989996026	 0.354427196	 0.129649
H	-0.1485012944	 1.7272938177	-1.1292867588	 0.132914
H	-1.0014727071	 1.8604842257	 0.4124835567	 0.125356
H	-1.1180257558	-0.5153647632	-1.6788058838	 0.12566
H	-1.0046779631	-1.8551378301	-0.5255394921	 0.164869
H	-2.1004010175	-0.4840484578	-0.2097214588	 0.117053
H	 1.734060833	 1.1497958309	 1.9552415105	 0.138625
H	 0.7412761166	 0.3382056818	 3.178995353	 0.128629
H	 2.297769456	-0.3489278307	 2.6940208362	 0.138034
H	 0.0936851145	-2.0285043462	 2.8338509661	 0.075718
