21
gdb 114391	4.09451	0.94969	0.90291	0.4078	79.21	-0.2228	0.0712	0.294	1398.9864	0.18019	-424.186079	-424.176547	-424.175603	-424.219993	36.308	
C	-0.075959812	 1.4736283954	-0.2328187545	-0.386103
C	-0.0319680473	-0.0208045338	 0.0972236662	-0.184652
C	-1.4194481006	-0.6329344282	 0.1849604938	 0.118241
O	-2.1085820966	-0.5728169685	-1.1092756346	-0.301411
C	-2.0823664466	-1.9971994481	-1.2035526406	 0.014318
C	-1.4730363128	-2.156971977	 0.1768958984	-0.181521
C	-2.8785168444	-2.648527126	-0.1015619945	 0.354276
C	-4.1372698035	-2.0529265277	 0.4784734506	-0.463362
O	-2.8589996968	-4.0544174286	-0.1678953102	-0.464311
H	 0.932285805	 1.8866903921	-0.3287813018	 0.112089
H	-0.6052871539	 1.6385420086	-1.17534268	 0.137567
H	-0.5960273892	 2.0378693826	 0.5492201588	 0.112516
H	 0.5429691958	-0.5611839121	-0.6641317615	 0.103254
H	 0.4748227777	-0.1874310998	 1.0573846616	 0.095513
H	-2.0116825304	-0.1264666506	 0.9593180326	 0.076402
H	-1.8659336675	-2.4552901762	-2.1629361129	 0.100714
H	-0.7034773534	-2.8283674548	 0.534396147	 0.103293
H	-4.1328721152	-0.9643590434	 0.3957128336	 0.141303
H	-5.012986347	-2.4190123973	-0.0719477837	 0.105335
H	-4.2578098611	-2.3351584102	 1.5291297171	 0.123181
H	-3.5528707703	-4.3275477264	-0.7788026152	 0.283357
