17
gdb 90583	3.51591	1.31759	1.03479	3.6124	75.86	-0.2378	-0.0262	0.2117	1148.4639	0.135244	-421.807485	-421.799575	-421.798631	-421.840056	29.97	
C	-0.3457651149	 1.490937153	-0.0597868266	-0.39628
C	 0.0904533205	 0.0451946851	 0.0943233971	 0.059947
O	 1.2251886425	-0.2739654238	-0.7965335791	-0.319244
C	 2.1393928687	-0.3283203193	 0.3339952287	 0.003074
C	 0.9764770542	-0.3384747072	 1.2609560504	 0.193771
C	 1.0934937617	-1.1785251932	 2.2887513764	-0.223594
C	 2.4881764333	-1.7808148334	 2.282786509	-0.356688
C	 2.8898252407	-1.6136922534	 0.7772545802	 0.343548
O	 3.5696652575	-2.3544287182	 0.1314922324	-0.274929
H	 0.4796068154	 2.1775918402	 0.1475352065	 0.124613
H	-0.6962711218	 1.6667265059	-1.0808285788	 0.133429
H	-1.1662421089	 1.7143393203	 0.6302284766	 0.122981
H	-0.7479083092	-0.6379176243	-0.0852931579	 0.099707
H	 2.8362761427	 0.5215405518	 0.3231598696	 0.104264
H	 0.2968000792	-1.5436011956	 2.9260338919	 0.111595
H	 3.2184916577	-1.2549253958	 2.9124660395	 0.136536
H	 2.5134068506	-2.8347354123	 2.5748505041	 0.137268
