18
gdb 107076	4.58314	0.92953	0.90902	5.4401	77.01	-0.2697	0.0244	0.2941	1340.0713	0.146794	-401.933059	-401.924319	-401.923374	-401.966889	32.103	
C	 0.1986420119	 1.5073892038	 0.1902898174	-0.381871
C	-0.1030380546	 0.0167054738	-0.0209270924	-0.303731
C	 0.4596592859	-0.5032264631	-1.3060162921	 0.437825
C	 0.0040952813	-0.2011525929	-2.7480101825	-0.310261
C	 0.5432021813	-1.6250695262	-3.1642230806	-0.176554
C	 1.5638997165	-1.6996036399	-4.1978334163	 0.284426
N	 2.3716375386	-1.7609748372	-5.0223778286	-0.324847
C	 1.0076278207	-1.8137032651	-1.701156735	-0.064223
O	 1.8782504014	-0.7321272297	-1.3882221935	-0.271486
H	 1.2777891209	 1.6843937802	 0.2046200113	 0.140805
H	-0.233142964	 2.1187378725	-0.6088753171	 0.122429
H	-0.2179605629	 1.8557020623	 1.1393158009	 0.120739
H	 0.3175274669	-0.571691171	 0.801723098	 0.118132
H	-1.1870543005	-0.151942982	-0.0159081288	 0.106976
H	-1.0780641024	-0.1267943164	-2.8717530494	 0.120124
H	 0.495554491	 0.6505183839	-3.2199473535	 0.135267
H	-0.2808560542	-2.2979854264	-3.4153032527	 0.129445
H	 1.1383824722	-2.7457342865	-1.163491065	 0.116807
