17
gdb 46542	4.0755	1.10247	1.02924	2.8689	67.52	-0.2637	0.0046	0.2683	1163.363	0.136832	-458.982666	-458.974956	-458.974012	-459.015916	28.384	
O	-0.109220834	 0.2800812698	-1.0646840428	-0.328669
C	-0.0992245431	 1.3046946141	-0.4512014979	 0.435711
C	-1.1777971088	 1.8857568875	 0.4599445596	-0.45203
C	-0.7884287152	 3.3539726434	 0.5988275055	 0.251422
C	-1.5586768404	 4.3918444486	-0.2586136217	-0.11604
O	-1.9213497862	 5.1515002871	 0.9095484102	-0.26606
C	-1.2932113249	 4.1990268728	 1.7868105608	-0.134345
C	 0.7300456047	 3.2835438996	 0.3890661107	-0.139568
O	 0.9620194092	 2.1625048357	-0.4756857616	-0.217464
H	-2.1707200388	 1.7074129532	 0.044567971	 0.145549
H	-1.1227281198	 1.3617031523	 1.4225460653	 0.142027
H	-0.9555409437	 4.9780207191	-0.9632427783	 0.109948
H	-2.4391769266	 3.9983953246	-0.7830112981	 0.108365
H	-2.0172129328	 3.6962691091	 2.4412647299	 0.107259
H	-0.513851581	 4.6604082308	 2.408139994	 0.105929
H	 1.147903673	 4.1730264105	-0.0883433905	 0.131543
H	 1.2555437382	 3.1149080518	 1.338316904	 0.116424
