19
gdb 50573	3.4869	1.19655	0.9905	2.8617	75.15	-0.2538	-0.0279	0.2259	1204.7901	0.159887	-423.025045	-423.016976	-423.016032	-423.058215	30.669	
O	-0.8667560193	 1.0788582168	 0.380678145	-0.244617
C	 0.2497234248	 0.7249784314	 0.1062985819	 0.135426
C	 1.4444776369	 1.6614206733	 0.0254038845	 0.03695
C	 1.3455078171	 2.8623364046	 0.9749046589	-0.232561
C	 2.7037462394	 3.5328935552	 1.1718414835	-0.041844
C	 3.7140712488	 2.9107730419	 2.1089122049	-0.279898
C	 3.9508041994	 2.8661798528	 0.624762137	-0.03131
C	 3.7858556592	 1.5541854386	-0.1146511041	-0.102708
O	 2.5976114407	 0.8738614393	 0.2635905589	-0.264788
H	 0.5008735538	-0.3330104028	-0.1275928593	 0.093543
H	 1.4726514329	 2.0278983878	-1.0203403787	 0.090575
H	 0.6230442682	 3.5710477628	 0.5614813234	 0.117342
H	 0.9350353332	 2.5305681384	 1.9346128804	 0.116456
H	 2.6873567166	 4.6174545194	 1.1457036041	 0.088302
H	 4.3327111431	 3.5649182131	 2.7130521606	 0.109657
H	 3.4267953268	 1.9822174998	 2.5922730593	 0.12062
H	 4.7259899358	 3.5096306621	 0.2189932644	 0.086316
H	 3.7739497296	 1.7359451459	-1.2032065336	 0.090077
H	 4.6090977831	 0.8659743296	 0.103561119	 0.112461
