16
gdb 106032	2.74236	1.62091	1.16527	2.0349	69.12	-0.246	-0.0118	0.2342	1037.9408	0.124161	-437.833981	-437.826094	-437.82515	-437.866911	29.118	
O	 0.0059653636	 1.3222185871	 0.5357781924	-0.419593
C	-0.0318789888	 0.0712547031	-0.1300446224	-0.203301
C	-1.4402760664	-0.4347174662	-0.1502905452	 0.175526
C	-2.6423600337	 0.3466973705	 0.298783895	-0.051927
C	-3.9184743202	-0.3060703541	-0.2144949974	-0.25859
C	-3.1770871134	-1.621370732	 0.0997202387	-0.141283
N	-2.2438759499	-0.8423065271	 1.0996293123	-0.181835
C	-1.9777390462	-1.6405421298	-0.8480363326	 0.415367
O	-1.5250843498	-2.4261858059	-1.6326548193	-0.339521
H	 0.9258233543	 1.5468868328	 0.7014869503	 0.295902
H	 0.3082751418	 0.1547517287	-1.1748676931	 0.113501
H	 0.6087928134	-0.6728204834	 0.3646383685	 0.117115
H	-2.4943520814	 1.3479591916	 0.6841001937	 0.129638
H	-4.7414501281	-0.131480608	 0.4832117824	 0.124213
H	-4.2535912633	-0.1309342325	-1.2410142519	 0.116138
H	-3.6763290719	-2.5361720248	 0.4080312583	 0.108649
