18
gdb 75775	2.3825	1.31297	1.12289	3.4044	79.18	-0.2462	0.0235	0.2696	1178.3406	0.14482	-401.944101	-401.934468	-401.933524	-401.978352	35.771	
C	-0.1238755332	 1.5855490764	-0.0827986633	-0.416244
C	 0.023695397	 0.0742095896	-0.0026641355	-0.201703
C	 1.1324041846	-0.5799710942	-0.8595418766	 0.44524
O	 1.400057468	-0.6220893654	-2.0299423998	-0.365408
N	 1.7322713544	-1.1175823371	 0.2544707375	-0.354549
C	 0.7561590601	-0.6008695806	 1.2369430514	 0.124236
C	 1.3729962341	 0.3344195086	 2.2809978631	-0.433517
C	-0.0333224447	-1.6488148902	 1.8807225936	 0.315598
C	-0.6774087451	-2.5063979267	 2.4240448043	-0.464115
H	 0.8280199291	 2.1032296026	 0.061864273	 0.126905
H	-0.4978543086	 1.8575283875	-1.0742746061	 0.142924
H	-0.835952589	 1.9577911318	 0.6603313008	 0.124631
H	-0.9358925168	-0.4155379581	-0.1868976347	 0.114474
H	 2.4384814474	-1.8339742575	 0.3499245791	 0.250507
H	 1.9920195615	 1.0942859687	 1.7991636674	 0.126137
H	 0.5906009593	 0.8266742192	 2.8653377263	 0.133658
H	 2.0000839279	-0.2351506527	 2.9729897239	 0.128736
H	-1.2499586661	-3.2673164118	 2.8947006155	 0.202491
