20
gdb 60811	2.53189	1.10679	0.94382	1.3603	77.09	-0.241	-0.0304	0.2105	1322.0927	0.167431	-440.331515	-440.320693	-440.319749	-440.368289	37.348	
C	 0.0278040904	 1.83496482	 0.5405512147	-0.39353
C	-0.0504333025	 0.3701950394	 0.1055985414	-0.096261
N	 0.6079145785	-0.5497442477	 1.0256069228	-0.036923
C	 0.1467072235	-0.6361760512	 2.4044142877	-0.354702
C	 1.6901342868	-1.2893217604	 0.6367453928	 0.155948
O	 2.3087790355	-2.0585964264	 1.3392718464	-0.339837
C	-1.5079524045	-0.070976231	-0.1740582841	 0.375582
C	-1.7248929013	-1.5315773061	-0.5224455465	-0.480122
O	-2.4148170422	 0.7258046641	-0.1379157251	-0.288948
H	 1.0697054388	 2.1242954795	 0.7013786652	 0.119655
H	-0.4060056964	 2.47531662	-0.2296921051	 0.139675
H	-0.5365016116	 2.0108661399	 1.4592529476	 0.135378
H	 0.4747371621	 0.2583669459	-0.8541887309	 0.109365
H	-0.9374667421	-0.787322432	 2.4429875825	 0.130269
H	 0.6519854613	-1.484015481	 2.8667754536	 0.171226
H	 0.388219326	 0.27128206	 2.9681057136	 0.136442
H	 1.9458266648	-1.1085815116	-0.4265553782	 0.07333
H	-1.0239248686	-1.8586813017	-1.2979063223	 0.138833
H	-1.5426178086	-2.1660466858	 0.3509073791	 0.157091
H	-2.7511382997	-1.671981094	-0.8629946252	 0.147531
