19
gdb 85172	2.21458	1.65483	1.12274	3.5076	75.49	-0.2448	0.0263	0.2711	1126.2909	0.160046	-419.203566	-419.19476	-419.193816	-419.237405	32.666	
C	 0.0941930507	 1.5883720078	-0.1369588789	-0.405244
C	 0.0507615574	 0.0738154868	-0.0046802834	 0.051037
N	 1.1055185346	-0.6576837257	-0.7265900555	-0.335274
C	 1.6507625383	-1.2687734967	 0.3692991893	 0.427344
O	 2.5820066164	-2.0201162612	 0.5149126094	-0.375621
C	 0.620998988	-0.5850526298	 1.3067391126	-0.206063
C	 1.1777862162	 0.2981627169	 2.3949810912	-0.008245
C	 2.3078304978	-0.1706670709	 3.2358641002	-0.248754
N	 2.499680331	 0.9405489039	 2.2844097487	-0.323061
H	 1.0671130992	 1.9901820197	 0.1560879838	 0.145608
H	-0.1114329666	 1.8905117291	-1.1694281691	 0.115963
H	-0.6711578683	 2.045657776	 0.4986650172	 0.126248
H	-0.950301068	-0.2983055462	-0.2538735987	 0.086411
H	 1.3131759189	-0.7493638265	-1.710756009	 0.249586
H	-0.0776186894	-1.3111713415	 1.7349688301	 0.106495
H	 0.4365374086	 0.9450439085	 2.8620820402	 0.094535
H	 2.3529296296	 0.1082628626	 4.2846611023	 0.115127
H	 2.7480920317	-1.1312720029	 2.9853819615	 0.144958
H	 2.994504664	 0.58381882	 1.4694868984	 0.238948
