15
gdb 125041	3.28217	1.29649	0.93651	7.3179	75.56	-0.2276	-0.0197	0.2079	1174.6052	0.114115	-413.02875	-413.019995	-413.019051	-413.062447	31.169	
C	-0.0545236262	 1.5730829432	 0.0288102752	-0.532715
C	-0.0243188463	 0.0782115129	-0.0025218464	 0.0703
C	 0.0039528937	-0.7540118909	-1.1084607624	 0.322541
N	-0.0546277214	-0.4843765535	-2.4740778036	-0.6114
N	 0.027369663	-2.0296764796	-0.6352927267	-0.244604
N	 0.0304689541	-2.1094935201	 0.7073792295	-0.297501
C	-0.010073461	-0.8309073241	 1.0909684604	 0.190942
C	-0.0129067791	-0.4779810967	 2.4696233491	 0.243532
N	-0.0138933748	-0.1299940431	 3.5736591333	-0.353707
H	 0.5882749817	 2.0051268201	-0.747394986	 0.118565
H	-1.0646653244	 1.9728118218	-0.1212196862	 0.139967
H	 0.3002704823	 1.9448311053	 0.9936030214	 0.155942
H	-0.0594167191	 0.5091319682	-2.6626117031	 0.261296
H	 0.6818009063	-0.9256872213	-3.0126185255	 0.257023
H	 0.0078570412	-2.8799196223	-1.1740343891	 0.27982
