21
gdb 121418	4.16898	0.80844	0.71201	1.539	75.52	-0.2351	0.0788	0.3139	1588.1146	0.183168	-461.35338	-461.344196	-461.343251	-461.387856	34.009	
O	 0.1123822622	 1.4146296966	 0.1234576606	-0.419234
C	 0.0713863788	-0.002735532	 0.0513264494	-0.066588
C	-1.3599601717	-0.546454598	 0.0350361599	-0.226016
C	-1.4219268189	-2.0679618585	 0.010513325	 0.109333
C	-2.8507947482	-2.6080125658	 0.0940968158	-0.091403
O	-2.8720381675	-4.0216231826	-0.0186594637	-0.25171
C	-2.2657857872	-4.4468177405	-1.228670528	-0.078134
C	-0.8363588674	-3.9253762116	-1.318028586	-0.078637
O	-0.8165741626	-2.5109688947	-1.2046748038	-0.268256
H	-0.2347982073	 1.7599525049	-0.7049927771	 0.280696
H	 0.6216472243	-0.3823376998	-0.8196892112	 0.108909
H	 0.5929788648	-0.3589321831	 0.9469549975	 0.108037
H	-1.8903623505	-0.1750218108	 0.9196203308	 0.107097
H	-1.8878493609	-0.1602675544	-0.8473021587	 0.094894
H	-0.8531782403	-2.4821636303	 0.8623600689	 0.070685
H	-3.3025727445	-2.3642520601	 1.0602994484	 0.109521
H	-3.4577441836	-2.1507105463	-0.7057835615	 0.088403
H	-2.2865994229	-5.5408936523	-1.2276005214	 0.10819
H	-2.8443173019	-4.0830723141	-2.0940776878	 0.092315
H	-0.228767074	-4.380234185	-0.5188273764	 0.094974
H	-0.3861468605	-4.1727137115	-2.2845044408	 0.106924
