18
gdb 37724	3.14596	2.13824	1.72296	0.8295	73.66	-0.219	0.0965	0.3155	838.6874	0.152301	-401.903476	-401.897633	-401.896689	-401.933416	25.29	
C	 0.0215719236	 1.6359666443	 0.081197103	-0.222492
C	 1.5554368654	 1.3247501978	-0.0174568556	-0.115798
C	 1.7422208986	 0.539972993	 1.2824440196	-0.050866
C	 1.8410790572	-0.9398187091	 1.1934171623	-0.049138
C	 2.2578466305	-1.6468695459	-0.070901999	-0.093643
O	 1.9631599176	-0.8946160407	-1.2372644551	-0.280391
C	 1.1225210121	 0.195230275	-0.9957402194	 0.153192
C	-0.0779594574	 0.0877491222	-0.0145188751	-0.054391
N	 0.5075175405	-0.312630224	 1.3095520446	-0.134976
H	-0.3386459522	 2.0797661152	 1.010573944	 0.111623
H	-0.3784254389	 2.1620292101	-0.7885921161	 0.10108
H	 2.3009084775	 2.0730810273	-0.2821211081	 0.070692
H	 2.0011616667	 1.0661856686	 2.1968690587	 0.093711
H	 2.1220939838	-1.4759318717	 2.0982091124	 0.094722
H	 3.3385693534	-1.841031439	-0.0512979915	 0.109615
H	 1.7508117569	-2.6234163691	-0.1270899437	 0.101752
H	 0.8303224731	 0.5888978465	-1.9697929838	 0.090281
H	-0.9994446984	-0.4441911505	-0.2467799273	 0.075028
