21
gdb 59408	2.88442	1.01451	0.98212	4.3965	85.25	-0.2316	0.0367	0.2683	1352.4638	0.180871	-383.264868	-383.254702	-383.253758	-383.299596	37.313	
C	 0.3758343507	 0.6572299787	-1.6485040452	-0.317761
N	 0.0209602905	-0.1132708126	-0.4617157458	-0.058323
C	 0.292531377	 0.6264428699	 0.7658045676	-0.324357
C	-1.3236867591	-0.5981195212	-0.5077680608	 0.006541
C	-1.6520762003	-1.7520458354	-1.4036713304	-0.339862
C	-1.6311341008	-1.9712284584	 0.1057522184	 0.138942
C	-0.5209068038	-2.8173420661	 0.7086455432	-0.462816
C	-2.9117743526	-2.0902650951	 0.7571412698	 0.240393
N	-3.9348520478	-2.1856158321	 1.2898095748	-0.349265
H	 1.4382890511	 0.9167004432	-1.6086611489	 0.122539
H	 0.20125124	 0.0592774652	-2.5466486947	 0.124045
H	-0.2000118695	 1.5959588181	-1.7434089551	 0.099393
H	-0.3050442909	 1.5528263331	 0.849109232	 0.102409
H	 0.0712730398	 0.0010779358	 1.6345821887	 0.128555
H	 1.3506928298	 0.9025172098	 0.801357427	 0.122067
H	-2.1180360634	 0.1446010994	-0.3760662228	 0.093318
H	-2.6073507723	-1.7589881065	-1.9140286452	 0.137556
H	-0.8311508362	-2.2094326565	-1.9449332279	 0.130162
H	 0.4287578945	-2.5557286	 0.2394477777	 0.140063
H	-0.4354304947	-2.6451119201	 1.7855283182	 0.133318
H	-0.7189371421	-3.8816552691	 0.5519718095	 0.13308
