18
gdb 24349	3.45509	1.54995	1.1094	0.6433	78.75	-0.172	0.0518	0.2238	1069.2245	0.152595	-398.150406	-398.143068	-398.142124	-398.181879	29.931	
C	-0.0183908371	 1.459066516	 0.0434579906	-0.167418
C	 1.4350062758	 1.9758708502	-0.0080629482	-0.167418
N	 2.2489462699	 1.5091543446	 1.1177723264	-0.406842
C	 1.9862252065	 0.1537178257	 1.434773917	 0.223745
C	 2.7102342113	-0.7083308233	 2.2309407587	-0.18731
N	 2.0820319544	-1.9298720494	 2.1852367309	-0.242264
C	 0.9713553511	-1.8701771094	 1.3779428095	-0.187311
C	 0.8851843379	-0.5812254291	 0.8958861119	 0.223748
N	-0.105575439	-0.0037355049	 0.0642537352	-0.406842
H	-0.4994444035	 1.8485927412	 0.95141617	 0.100779
H	-0.5897181417	 1.8317751674	-0.8125188502	 0.095478
H	 1.9003641363	 1.628019427	-0.9407857621	 0.10078
H	 1.4537988211	 3.0701378989	-0.0238484775	 0.095477
H	 2.1347831784	 2.1149569314	 1.9220439351	 0.224241
H	 3.6035350077	-0.5530736518	 2.8130384898	 0.109453
H	 2.3910937043	-2.7503996747	 2.672820791	 0.258009
H	 0.3436606913	-2.7306093598	 1.2148945675	 0.109454
H	-0.0775310747	-0.3809725701	-0.8758455657	 0.224241
