19
gdb 98330	4.12508	0.76281	0.73253	5.0451	77.89	-0.2607	0.0135	0.2742	1590.0051	0.157857	-419.264416	-419.253782	-419.252838	-419.301611	36.233	
C	-0.0004126985	 1.4731809148	-0.1965890571	-0.337606
N	-0.1179971725	 0.0288432792	-0.2761177609	-0.320115
C	-1.1666435026	-0.6549811665	 0.2586852208	 0.425284
O	-2.1067766793	-0.1155112505	 0.8181940216	-0.384448
C	-1.0693419973	-2.1814868504	 0.1434464158	-0.108697
C	-0.4553283708	-2.7516984105	 1.4339600011	-0.397242
C	-2.490989076	-2.730795394	-0.1127660266	-0.334596
C	-2.5197509074	-4.1854271343	-0.2318508265	 0.257503
N	-2.5228513366	-5.3371509891	-0.329944361	-0.316294
H	 0.8864320387	 1.7704041638	 0.3738267151	 0.130537
H	 0.0570774433	 1.9209315032	-1.1943718104	 0.130317
H	-0.8916168844	 1.8434451126	 0.3108488737	 0.175165
H	 0.6164837235	-0.4914288898	-0.7264853091	 0.24946
H	-0.4309951905	-2.4516365849	-0.7060601163	 0.089453
H	-1.0586083629	-2.4625343591	 2.2997971323	 0.142741
H	-0.4079512768	-3.8429588317	 1.3902285103	 0.14854
H	 0.5586099095	-2.3700545101	 1.5842032035	 0.11969
H	-3.1443834028	-2.4097239706	 0.7039978927	 0.176356
H	-2.9054399967	-2.297679192	-1.0293993191	 0.153951
