17
gdb 76532	2.62631	1.26962	1.21509	1.3971	71.32	-0.2475	-0.0353	0.2122	1122.4078	0.133356	-458.936426	-458.927511	-458.926567	-458.970222	32.449	
C	-0.1596431959	 1.4837869387	-0.2100814582	-0.401517
C	 0.0184074877	-0.0165203584	-0.1715259632	-0.141695
C	 1.3917881257	-0.6500966764	-0.1894778662	 0.041319
O	 2.5268789272	 0.1454637445	-0.1162870387	-0.422803
C	 0.5499889099	-0.6840544794	 1.0737311537	 0.262852
O	 1.0475818106	 0.0558876863	 2.2022311424	-0.331159
C	 0.7117384038	-1.0191444839	 3.1232676237	-0.189369
C	 0.1192033852	-1.8164508038	 1.9440303313	 0.27328
O	-0.4355718445	-2.864009268	 1.7968478465	-0.296622
H	 0.6878701878	 1.9903524922	 0.2542401983	 0.135675
H	-0.2300912843	 1.8269710637	-1.2467787346	 0.128964
H	-1.0710411886	 1.7865353542	 0.3136382334	 0.124996
H	-0.7522158645	-0.6038181176	-0.6668530891	 0.112661
H	 1.5348209621	-1.5750660321	-0.74268696	 0.117541
H	 2.6649483968	 0.3545366808	 0.8194632338	 0.301403
H	 1.5969904238	-1.4606214741	 3.5929035692	 0.141104
H	-0.0037548527	-0.6986539266	 3.8871970577	 0.143368
