21
gdb 98071	3.20081	0.99772	0.81056	2.7996	82.88	-0.2272	-0.0418	0.1854	1492.1476	0.180074	-420.424755	-420.413768	-420.412824	-420.461746	38.177	
C	 1.1970878785	 1.4102628003	 0.621150089	-0.38233
C	 0.6693882872	 0.0670615994	 0.1256565998	-0.266797
C	 1.532901713	-0.5470921562	-0.9571415071	 0.337359
O	 2.5094723816	 0.010834018	-1.4074245773	-0.319483
C	 1.1246595697	-1.9487044507	-1.4270811768	 0.280607
N	 0.521040632	-2.6534810747	-0.5365483138	-0.531319
N	 1.5359339163	-2.363699414	-2.6731903931	-0.076494
C	 1.3213155962	-3.7534077537	-3.0298655009	-0.350918
C	 1.7168276767	-1.4643706505	-3.807684343	-0.348309
H	 2.1940889713	 1.3035910544	 1.0571024153	 0.128288
H	 1.2777476735	 2.1311731334	-0.1969147639	 0.123865
H	 0.5314345894	 1.8245162068	 1.3834527302	 0.109284
H	 0.5696188157	-0.6697431282	 0.9283263395	 0.157317
H	-0.3468834171	 0.1587912012	-0.2827753373	 0.122283
H	 0.2946336899	-3.5904317106	-0.8671635587	 0.21273
H	 0.2630318935	-3.988428647	-3.2250819117	 0.122289
H	 1.8897538387	-3.9754533814	-3.9359927771	 0.132101
H	 1.68079366	-4.4126091166	-2.2338303024	 0.140722
H	 1.8741184278	-0.4460207166	-3.4680871549	 0.16823
H	 2.5979037827	-1.768512899	-4.3832644246	 0.128206
H	 0.8454951836	-1.4954754244	-4.4784830411	 0.112369
