18
gdb 108288	2.85513	1.37259	1.08516	3.7927	72.4	-0.2232	-0.022	0.2012	1139.5093	0.146252	-439.042149	-439.03356	-439.032616	-439.075554	32.02	
C	-0.0675029346	 1.4766786836	 0.1335392272	-0.265327
O	 0.0202454408	 0.0633325663	 0.112992146	-0.288441
C	-1.2071647647	-0.5681787908	-0.0270394117	 0.427869
C	-2.18710094	-0.5989962746	 1.1736010759	-0.229976
N	-2.4616879199	-2.0279434398	 0.8787875944	-0.320695
C	-1.2852822431	-2.130879255	-0.0338978538	-0.222163
C	-1.8124992163	-2.0726482543	-1.4800543322	 0.461511
O	-2.0481951941	-2.8851213451	-2.3231297478	-0.30066
C	-1.877385217	-0.5251189778	-1.4418480622	-0.424754
H	 0.9502523129	 1.8584350851	 0.2362523439	 0.134302
H	-0.5051113686	 1.8712161826	-0.7945495233	 0.114963
H	-0.6685524466	 1.834445797	 0.9819745988	 0.114481
H	-1.6465540542	-0.4274412432	 2.1137385207	 0.103324
H	-3.0726691781	 0.0450691995	 1.1402653958	 0.103657
H	-2.4292788147	-2.6527249299	 1.6737349948	 0.2342
H	-0.4693758399	-2.7986172485	 0.2494492836	 0.090676
H	-2.8770489072	-0.0909792743	-1.5189418124	 0.129754
H	-1.2290108347	-0.0780452207	-2.2020523875	 0.137279
