23
gdb 107019	2.8869	1.23535	1.03381	1.7141	85.36	-0.2424	0.0796	0.322	1294.8344	0.203921	-388.271753	-388.261778	-388.260834	-388.30633	37.591	
C	-0.2266072337	 0.9555953774	 1.1253416863	-0.380028
C	-0.2412091251	-0.3974668418	 0.3989712237	-0.302403
C	-1.5928567137	-0.7672022287	-0.1324357565	 0.433275
O	-2.5983986999	-1.1674502908	 0.8196355233	-0.299396
C	-2.2777298442	-2.0642267765	-0.2566586558	-0.068714
C	-3.0768309776	-1.6105972824	-1.4859586689	-0.01597
C	-4.5942880312	-1.6983631045	-1.3991987471	-0.405231
C	-2.3561885755	-0.2006949002	-1.3536475971	-0.070467
C	-3.1959108435	 1.0532813648	-1.1455785778	-0.411513
H	 0.7671960615	 1.1689411776	 1.5299566598	 0.112284
H	-0.4955376476	 1.7753130552	 0.4517457113	 0.120188
H	-0.9398800305	 0.9538732338	 1.9546558745	 0.134393
H	 0.4737138391	-0.3827773582	-0.4334910669	 0.099514
H	 0.0850563731	-1.1872422433	 1.0853484771	 0.108573
H	-1.953229475	-3.0623679829	 0.020564014	 0.0925
H	-2.7160645276	-2.1211813747	-2.3851538974	 0.070998
H	-4.9552696052	-1.2695327396	-0.4611302809	 0.132974
H	-5.0746552802	-1.1671682677	-2.2276870942	 0.112046
H	-4.9239801272	-2.7424866265	-1.4420407287	 0.110815
H	-1.6714641323	-0.063456359	-2.1976962345	 0.069182
H	-3.7911273727	 0.9757602541	-0.2322050193	 0.132766
H	-2.5613114871	 1.9419944899	-1.062161669	 0.112441
H	-3.8790520239	 1.216582014	-1.9860353458	 0.111775
