18
gdb 54695	3.54884	1.31472	1.26177	1.9202	74.4	-0.2378	-0.0207	0.2171	1068.6118	0.147618	-401.905881	-401.897902	-401.896958	-401.939803	29.718	
C	-0.011634164	 1.4777744124	 0.2668449019	-0.484758
C	 0.1554139414	-0.0170340363	 0.0633660247	 0.364474
O	 1.2442914419	-0.5356733026	-0.0463854561	-0.303912
C	-1.120210735	-0.8369705597	 0.0288116662	-0.088402
C	-1.1024002144	-2.2975474938	-0.3738587465	-0.055415
C	-0.8086378098	-3.1389156342	 0.822779367	-0.020874
C	-0.6141587759	-2.2374213114	 2.0261008576	-0.239461
C	-1.7154606634	-1.3904520625	 1.3601124897	-0.03499
N	-2.2135297464	-2.6510551643	 0.5845576555	-0.171412
H	 0.9620327345	 1.9479998717	 0.4087114296	 0.143776
H	-0.5048517448	 1.9183526121	-0.607889679	 0.143544
H	-0.6570047227	 1.6836627536	 1.1285198066	 0.137784
H	-1.913958978	-0.302738313	-0.5044948356	 0.093412
H	-1.0813251065	-2.7018424653	-1.3788810565	 0.100537
H	-0.5582011791	-4.1888404409	 0.7247986053	 0.099038
H	-0.9922644302	-2.7138366523	 2.9340218439	 0.113492
H	 0.3660329309	-1.7899822299	 2.2106434083	 0.117002
H	-2.4217663086	-0.7995068937	 1.9395988675	 0.086166
