22
gdb 81783	2.12995	1.71508	1.31589	0.7899	81.92	-0.199	0.0679	0.2669	1107.3113	0.191696	-404.303429	-404.293701	-404.292757	-404.336718	38.221	
C	-0.4856070485	 1.4011471654	 0.4181437555	-0.328387
N	-0.0677111504	 0.0296857572	 0.1908168066	-0.108083
C	 0.2635969456	-0.375344084	-1.1699333978	-0.102563
C	 1.560647477	 0.2379859352	-1.6755568032	-0.348943
C	 1.6123742125	-0.9108592199	-0.7186436815	 0.356451
O	 2.3098796857	-2.0546514393	-1.0546692237	-0.461502
C	 1.257111353	-0.4813287507	 0.721178941	 0.240943
C	 2.1878974779	 0.521281856	 1.3987527802	-0.447833
C	 1.0022340797	-1.6831989858	 1.6336872722	-0.429998
H	 0.1862956157	 2.1696946685	-0.0007140482	 0.09268
H	-1.4732329057	 1.5459764288	-0.0333330037	 0.119511
H	-0.5851745862	 1.586316417	 1.4922285538	 0.116759
H	-0.4893681916	-0.7848651806	-1.8353064948	 0.092243
H	 1.8187794351	-0.0447083693	-2.6916477808	 0.11837
H	 1.8652038009	 1.2422750116	-1.3960030833	 0.105224
H	 1.8598108017	-2.8098679846	-0.6598585788	 0.286805
H	 2.401909682	 1.3881358372	 0.7695840238	 0.118105
H	 1.7620992542	 0.8835265543	 2.3411259641	 0.115155
H	 3.1410303842	 0.0358940692	 1.6325024468	 0.124229
H	 1.9366151264	-2.201915043	 1.876717285	 0.112457
H	 0.541511243	-1.3563334719	 2.5708965697	 0.118137
H	 0.3127717879	-2.3903072311	 1.1614239171	 0.110241
