21
gdb 86137	2.40577	1.41606	1.02018	1.9076	78.48	-0.2367	-0.0267	0.21	1239.3744	0.181566	-424.265769	-424.256121	-424.255176	-424.300522	35.99	
C	-0.1837291426	 1.5665503098	 0.020390749	-0.405432
C	 0.0701561265	 0.060797192	 0.0170632706	 0.007013
C	 0.9095195519	-0.4556653737	-1.1752060774	-0.233812
C	 1.3272567592	-1.8808096587	-0.7653272114	-0.090075
C	 2.5136162021	-2.5071088753	-1.4925258828	-0.406468
C	 1.5369217462	-1.744433523	 0.7414549832	 0.378715
O	 2.246023571	-2.4297922248	 1.4371706667	-0.335744
C	 0.8132252676	-0.4771716204	 1.2503371023	 0.025595
O	 1.8253460191	 0.43932129	 1.6546600801	-0.436125
H	 0.7561905443	 2.1183095639	 0.0946684519	 0.137736
H	-0.6933745101	 1.871813383	-0.8993522529	 0.108811
H	-0.8122165516	 1.8622129982	 0.8665563661	 0.11506
H	-0.8969226862	-0.4609219828	-0.0100034677	 0.074637
H	 0.3565635678	-0.4275389868	-2.1180180357	 0.098981
H	 1.8031154295	 0.1692188676	-1.2960285808	 0.112394
H	 0.4485680052	-2.5377870308	-0.8762692453	 0.103458
H	 3.3876447088	-1.8493045767	-1.44630626	 0.122938
H	 2.7878079537	-3.457303462	-1.0266966343	 0.135805
H	 2.2808011628	-2.6882881674	-2.5458013581	 0.114351
H	 0.1404314146	-0.7103448239	 2.0880336012	 0.077885
H	 2.42656153	-0.0525745481	 2.2277436453	 0.294277
