16
gdb 53986	1.86382	1.4511	1.37731	2.5968	70.43	-0.2749	-0.0782	0.1967	1087.6142	0.119585	-437.924487	-437.914323	-437.913379	-437.960501	34.613	
C	-0.8050166946	 1.157515351	 0.2674276531	-0.494266
C	 0.3757047173	 0.3341758116	-0.1765191179	 0.377675
O	 1.4301425095	 0.2927257239	 0.4014114857	-0.281273
C	 0.1700656467	-0.5846879134	-1.4411751034	-0.13989
C	 1.5229352712	-0.868734977	-2.1213698762	-0.427657
C	-0.3918712743	-1.8957209408	-0.836905058	 0.153843
O	-1.5513354276	-2.1903471299	-0.8011101664	-0.221019
C	-0.7902698404	-0.0017624627	-2.3736938982	 0.298211
N	-1.5208684155	 0.4814440804	-3.1270763636	-0.335405
H	-0.9916057878	 1.9583282863	-0.4558269242	 0.176228
H	-1.7112740493	 0.5431591715	 0.292209823	 0.170562
H	-0.6020328681	 1.585810573	 1.2490365966	 0.152205
H	 2.2263812435	-1.2427065895	-1.3760931174	 0.156316
H	 1.4055975301	-1.6033972213	-2.9215054658	 0.143167
H	 1.9333546267	 0.0489063798	-2.5471088901	 0.152677
H	 0.4052433625	-2.532029413	-0.3991459672	 0.118625
