23
gdb 115845	2.60081	1.23323	1.08177	1.5061	84.65	-0.2242	0.0778	0.302	1276.7057	0.20637	-388.282386	-388.27303	-388.272085	-388.31648	35.432	
C	-0.1194025624	 1.1548198328	-1.0576966813	-0.385217
C	-0.2564944128	-0.3112439744	-0.6316172554	-0.18992
C	 0.6372250512	-0.6839385142	 0.5594548649	 0.006565
C	 0.2706662331	 0.0389922381	 1.8820190668	-0.099727
O	 0.420902379	-0.8905842517	 2.9579726384	-0.262816
C	 0.6071198632	-2.1899949878	 2.455084754	 0.078286
C	-0.518788531	-2.8237984221	 1.6764473499	-0.040414
C	-1.9528032817	-2.3429698869	 1.7372343312	-0.418864
C	 0.6536831253	-2.1561794842	 0.9557227206	-0.130365
H	 0.9150265366	 1.3913313672	-1.3318156213	 0.114244
H	-0.7518643306	 1.3770912364	-1.9226202991	 0.113751
H	-0.4115810507	 1.8379859811	-0.2527047932	 0.119507
H	-1.3023203316	-0.5289529502	-0.3852264292	 0.100971
H	-0.0009535766	-0.9600167572	-1.4783648414	 0.095678
H	 1.6710770661	-0.4231414158	 0.2943144964	 0.074344
H	 0.9149648035	 0.9011537828	 2.0873977124	 0.104679
H	-0.765390961	 0.4038447224	 1.8499786325	 0.096013
H	 1.2702436645	-2.7776517332	 3.0812686805	 0.092558
H	-0.4398630342	-3.9087754265	 1.6276034321	 0.083386
H	-2.4769881263	-2.5177159399	 0.79144326	 0.116034
H	-2.4938507285	-2.8866584661	 2.5196086156	 0.117388
H	-2.0289389378	-1.2817987902	 1.9776766066	 0.129925
H	 1.3216538126	-2.8042057005	 0.3984893788	 0.083993
