20
gdb 37828	2.92531	1.82526	1.68096	2.0348	82.09	-0.2167	0.0716	0.2883	926.2027	0.173322	-365.906631	-365.899736	-365.898792	-365.937689	28.992	
C	 0.0027976728	 1.6479317901	 0.1993885261	-0.311779
C	 1.4634699563	 1.2189300046	 0.0498725613	-0.068303
N	 1.2181016486	-0.0855241947	 0.8675093797	-0.204983
C	 1.8724086953	-0.8932472438	-0.2513160914	-0.231003
C	 1.1459197916	 0.1677542591	-1.0765265336	 0.263355
C	 0.522687859	 0.0758119112	-2.453733235	-0.355822
C	-0.6931188354	-0.8886591786	-2.1785466692	-0.195766
C	-1.092650208	-0.7709878726	-0.6517751855	-0.370151
C	-0.0211931885	 0.1409194614	-0.0825417125	 0.35545
H	-0.3062390079	 1.9630322687	 1.199849406	 0.105222
H	-0.4038952132	 2.3052593287	-0.5740258756	 0.097217
H	 2.3844107504	 1.7829156235	 0.2117314821	 0.078493
H	 2.9672138181	-0.8689811466	-0.2233506534	 0.094061
H	 1.5206073898	-1.9299512712	-0.2997141896	 0.096237
H	 0.160906045	 1.0582141652	-2.7778026817	 0.105569
H	 1.1782932062	-0.3086014492	-3.2400621984	 0.101043
H	-1.5356341934	-0.6627930243	-2.8377730963	 0.102693
H	-0.3954952291	-1.9186514553	-2.3970178375	 0.108696
H	-2.0909759262	-0.3444904552	-0.5218465984	 0.110679
H	-1.1014169613	-1.7549921309	-0.174688727	 0.119093
