12
gdb 25309	2.8423	1.34367	0.91236	1.2178	67.31	-0.2777	-0.1091	0.1685	1145.1193	0.077093	-472.663561	-472.656129	-472.655185	-472.696214	25.563	
O	 0.0557071541	-0.0801699611	-0.0027443832	-0.252565
C	 0.0147849499	 1.1264308298	 0.0085352091	 0.072485
C	 1.1969135561	 1.9893993536	 0.0027863782	 0.211263
C	 1.3794497825	 3.3547183811	 0.0135120161	 0.094584
C	 0.3459463552	 4.4083464559	 0.0355867534	 0.084155
O	 0.585696706	 5.5887250803	 0.0434292422	-0.234819
N	 2.7370589319	 3.6274615851	 0.0001929175	-0.281827
C	 3.2896830379	 2.4589429557	-0.0173459342	 0.092343
O	 2.4320981379	 1.4155259436	-0.0171692775	-0.152667
H	-0.9422146188	 1.6856455667	 0.0255457876	 0.102277
H	-0.6967962527	 4.0261078523	 0.0437928055	 0.086632
H	 4.3416007501	 2.217858917	-0.0319676847	 0.17814
