23
gdb 108923	3.49965	1.0119	0.91787	0.2314	92.72	-0.2145	0.0282	0.2426	1424.8697	0.205852	-351.170481	-351.161168	-351.160224	-351.204394	36.166	
C	 0.155438887	 1.4683305727	 0.3471238261	-0.37251
C	-0.0266744678	 0.0162680378	-0.1290273898	-0.284549
C	-1.4532626341	-0.4495778475	-0.110790912	 0.328917
C	-2.1717827987	-0.8822551266	-1.1533270359	-0.266894
C	-3.5397175659	-1.3525683472	-0.7710329728	 0.346559
C	-4.7120079294	-1.093577317	-1.6877511895	-0.483008
C	-3.5266071115	-2.5605680664	 0.1489174753	-0.317562
C	-3.5804755052	-1.1723159008	 0.7404677855	-0.085824
C	-2.2722373145	-0.5162283387	 1.1721541073	-0.325694
H	 1.2089278607	 1.7618526242	 0.3060060573	 0.111322
H	-0.4147881338	 2.1594158886	-0.2817403803	 0.118984
H	-0.1850840828	 1.5975837613	 1.3792844236	 0.118748
H	 0.3739467265	-0.0884384151	-1.1437263312	 0.099503
H	 0.5805207476	-0.6400109323	 0.5112208828	 0.100177
H	-1.8087426216	-0.9304903193	-2.1758483205	 0.079577
H	-4.6008506247	-1.6302839002	-2.6376972418	 0.114589
H	-5.6500644375	-1.425658158	-1.2315258333	 0.112491
H	-4.8104523143	-0.0268058654	-1.9191929818	 0.115495
H	-4.4364321136	-3.1506050248	 0.2121630113	 0.101605
H	-2.609287011	-3.1353062267	 0.2324869342	 0.103834
H	-4.5005951946	-0.873778885	 1.2305401301	 0.078091
H	-1.7526183032	-1.0852002092	 1.955770583	 0.102479
H	-2.4454704376	 0.4854190955	 1.5886305925	 0.103671
