17
gdb 41456	2.89068	2.19109	1.67305	0.9671	71.29	-0.2389	0.0403	0.2791	840.3861	0.137609	-421.689382	-421.683247	-421.682303	-421.719444	26.227	
C	 0.0511089133	 1.4922091332	-0.148432812	-0.196709
O	 1.5133274404	 1.4447158845	 0.0879842059	-0.341383
C	 1.3273597003	 0.2009799244	 0.8069158805	 0.332887
C	 1.1153912727	 0.2602220613	 2.3150905917	-0.144612
O	 0.1503227703	-0.799645559	 2.4670747001	-0.263402
C	-0.0357435387	-1.2375040615	 1.1482828801	 0.066587
C	 1.3695820525	-1.3138569286	 0.3841982255	-0.153404
C	 0.6693846346	-0.9462842925	-0.9249557028	-0.269682
C	-0.017952608	-0.0299561836	 0.1222607386	 0.121543
H	-0.4386254219	 2.1429448616	 0.5830863209	 0.119726
H	-0.1776922157	 1.8192453499	-1.1659522355	 0.123889
H	 2.0107256131	 0.0363196555	 2.9050609391	 0.111755
H	 0.689986522	 1.2113018032	 2.6539033003	 0.110939
H	-0.7536260309	-2.0565341933	 1.1033933034	 0.098359
H	 2.1374891294	-2.0715086748	 0.564465609	 0.075351
H	 1.2854601305	-0.4278006538	-1.6605646765	 0.115668
H	 0.0463340861	-1.7126597364	-1.3931815484	 0.092489
