15
gdb 25972	5.03668	1.08091	0.89485	2.1785	69.82	-0.2186	-0.0182	0.2004	1242.7976	0.113103	-454.018948	-454.010881	-454.009937	-454.052602	28.834	
C	 0.0806981421	 1.4004372657	 0.2495170046	-0.483345
C	-0.3472634503	 0.0738504729	-0.3159570401	 0.4335
O	-0.714614787	-0.1251616153	-1.4478198968	-0.352456
O	-0.2601703629	-0.8852160956	 0.6439787753	-0.243727
C	-0.5885219524	-2.1917556696	 0.4087919387	 0.453585
N	-0.4972628778	-3.0945127879	 1.3440136871	-0.334654
C	-0.9074422592	-4.2608580137	 0.7298126288	-0.085757
C	-1.2407330418	-4.0332398964	-0.5769163089	-0.115192
N	-1.0300741775	-2.6823705199	-0.778035042	-0.29108
H	 1.1081336709	 1.3342576975	 0.6182198996	 0.164071
H	 0.0077371508	 2.1631454644	-0.5242280449	 0.154683
H	-0.5528553284	 1.664601056	 1.1008110729	 0.164056
H	-0.9358370782	-5.1927850434	 1.2722505258	 0.113235
H	-1.5969453128	-4.6735176253	-1.3660165838	 0.131892
H	-1.1572768856	-2.1198654193	-1.6042990463	 0.291189
