22
gdb 14046	3.99239	1.55771	1.45478	0.0734	80.83	-0.28	0.0772	0.3572	995.1835	0.202838	-313.080109	-313.072311	-313.071367	-313.113266	30.329	
C	 0.0910418729	 1.667841684	-0.0482094364	-0.207988
C	 1.6024904942	 1.4711536714	 0.2419922876	-0.259349
C	 1.308443615	-0.0197468486	 0.6171340341	 0.396032
C	-0.067984389	 0.1241302717	-0.089868533	-0.288429
C	 2.294787719	-1.0973319901	 0.1433704241	-0.2822
C	 3.3229244008	-1.2786315787	 1.2952803712	-0.199508
C	 2.7305617566	-0.5095841147	 2.5092283091	-0.203033
C	 1.2599273997	-0.256507808	 2.1351914528	-0.255993
H	-0.4379941868	 2.1138880062	 0.7982871368	 0.100539
H	-0.1768033047	 2.223878407	-0.9496255889	 0.093215
H	 2.2081721184	 1.5503364375	-0.6662435794	 0.091945
H	 2.0546624462	 2.1022284567	 1.0130530533	 0.090511
H	-0.9331945115	-0.3116409671	 0.4191416602	 0.089132
H	-0.0403112172	-0.2624898512	-1.1138145371	 0.093374
H	 1.7458693803	-2.0325811369	-0.0231724901	 0.093384
H	 2.7642941673	-0.8358981534	-0.8101970102	 0.087947
H	 3.4644327538	-2.3384123311	 1.5265461617	 0.096824
H	 4.3075488171	-0.8870364881	 1.0247569842	 0.096647
H	 2.8402750018	-1.0539569843	 3.4512781086	 0.091293
H	 3.2481039043	 0.447721667	 2.6362788436	 0.098091
H	 0.8105126271	 0.5737041088	 2.6899382458	 0.088595
H	 0.6556643347	-1.1503020681	 2.3419252821	 0.088968
