20
gdb 103918	3.42503	1.10252	1.0383	2.5429	75.39	-0.2389	0.0554	0.2943	1244.8921	0.169614	-440.239781	-440.230492	-440.229547	-440.273341	35.752	
C	 0.0279175538	 1.5644593892	 0.0696421848	-0.486232
C	-0.047662867	 0.0682361726	 0.0748657765	 0.34991
C	-1.3269813132	-0.7802453449	-0.0655961624	-0.353379
C	-0.7068652925	-1.8150620074	 0.9466167039	 0.423207
O	-1.3309663787	-1.7668764856	 2.2133098904	-0.490186
C	-0.5806976329	-3.2678093857	 0.5097217623	-0.144939
O	-1.9080241344	-3.7907198916	 0.4922748156	-0.434483
C	 0.5657385643	-0.958550202	 0.9887474909	-0.143011
N	 1.1156632277	-0.7098245883	-0.3421016421	-0.367575
H	 1.0360095187	 1.8949296115	 0.333256838	 0.131387
H	-0.2084319119	 1.964452233	-0.9238144688	 0.11809
H	-0.682632487	 1.9953803025	 0.7825752088	 0.121287
H	-2.2113779414	-0.3198441447	 0.3787678874	 0.112256
H	-1.5627247074	-1.1224685852	-1.0794411987	 0.087584
H	-2.0713772276	-2.3855456681	 2.1600414204	 0.285207
H	-0.1123684582	-3.3493749094	-0.4817482332	 0.08216
H	 0.048212574	-3.8044889174	 1.234920361	 0.099756
H	-1.8630645944	-4.7473942988	 0.4119886033	 0.295874
H	 1.2091413956	-0.8522992618	 1.8554514583	 0.092476
H	 0.8957100824	-1.4391881079	-1.0173139963	 0.220611
