22
gdb 118406	1.90508	1.02002	0.70492	1.4202	82.97	-0.2413	0.0258	0.2671	1684.3011	0.191488	-441.488662	-441.477356	-441.476411	-441.527067	39.074	
C	 0.0700876602	 1.503308127	-0.1473567744	-0.394898
C	 0.0254957686	-0.0113497284	-0.0714898235	-0.029431
O	 0.8285507289	-0.5230362795	-1.14517175	-0.274113
C	 0.9155881245	-1.8712301285	-1.2735496082	 0.37068
C	 1.8229079437	-2.1858552269	-2.4581624815	-0.141497
O	 1.7103889959	-1.2485806812	-3.5049545509	-0.418766
N	 0.3296105941	-2.6360433537	-0.4564754076	-0.300846
C	 0.4222780308	-4.0818837212	-0.5413795688	-0.141123
C	 1.2439141708	-4.6395051462	 0.6259326661	-0.359686
H	 1.0955679001	 1.8707917896	-0.0475707861	 0.126773
H	-0.3329932952	 1.8605392576	-1.0995596392	 0.12716
H	-0.5289016969	 1.9329329669	 0.6610611221	 0.123274
H	 0.4200466837	-0.3886548131	 0.8776303487	 0.116941
H	-0.9930524917	-0.3996772958	-0.1730302412	 0.119398
H	 2.8574270572	-2.2466285487	-2.077050395	 0.108607
H	 1.575337422	-3.1656728865	-2.871818476	 0.126851
H	 1.6017074859	-0.3872436092	-3.0857304451	 0.292929
H	-0.598176223	-4.479456848	-0.4766758306	 0.107225
H	 0.8423186279	-4.447154926	-1.4898824698	 0.088702
H	 2.2831772738	-4.2997700509	 0.5700512266	 0.114061
H	 0.8297845371	-4.3009403717	 1.5798075147	 0.126214
H	 1.2403073416	-5.7339560355	 0.6120632697	 0.111544
