18
gdb 130199	2.98678	1.33727	0.97802	1.7851	78.29	-0.1962	0.0365	0.2326	1199.476	0.150312	-398.136525	-398.128213	-398.127268	-398.169775	31.777	
N	 0.1175920126	 1.3131457952	-0.1993156657	-0.590915
C	 0.0769669705	-0.0746557972	-0.0697814014	 0.28889
N	-1.0732889186	-0.7387675805	-0.0731474605	-0.309637
N	-0.7063563293	-2.0273769674	 0.1534735965	-0.198064
C	 0.629535052	-2.1799642921	 0.2841968134	-0.121881
C	 1.1972723109	-0.928576799	 0.1442309835	 0.167162
C	 2.6169826448	-0.5218575035	 0.2283267151	-0.142479
C	 3.7227671362	-1.4569259472	-0.1908822274	-0.268017
C	 3.4224045615	-0.2428058308	-1.0308049143	-0.258898
H	 0.9122135134	 1.6326251715	-0.737688941	 0.247257
H	-0.7454850054	 1.6807291754	-0.5788383861	 0.247815
H	-1.4182266943	-2.734217295	 0.1922923661	 0.269621
H	 1.0783501864	-3.1431136438	 0.4715202992	 0.127742
H	 2.8542154316	 0.1322184281	 1.065009146	 0.097026
H	 4.6346133715	-1.4662380524	 0.3954597005	 0.111192
H	 3.4414684398	-2.4240331574	-0.5925394097	 0.110611
H	 2.931337288	-0.4029162143	-1.9844461974	 0.113093
H	 4.1284204585	 0.5804182706	-1.0167192668	 0.109484
