20
gdb 71681	2.68249	2.24068	1.65497	1.6584	80.66	-0.2196	0.0766	0.2963	898.2456	0.173995	-365.953122	-365.946535	-365.945591	-365.98355	28.419	
C	 0.051259019	 1.4839485675	 0.0266611773	-0.512959
C	 0.0282693527	-0.0260949106	-0.0036538298	 0.328183
C	-1.2701738429	-0.8480203849	-0.1956818266	-0.220598
N	-0.4247454184	-1.9584976136	-0.7410329629	-0.155084
C	 0.594346583	-2.2113321767	 0.3376231858	-0.001382
C	 1.7789291244	-1.6837928388	-0.5210194462	-0.055016
C	 2.2726518928	-0.8307396158	 0.6602636105	-0.262148
C	 0.782222335	-0.8181578649	 1.0841635386	-0.086887
C	 0.6040326433	-0.9149258618	-1.1798369946	-0.044828
H	 1.0740498296	 1.8742673147	 0.0598010248	 0.119589
H	-0.4355489631	 1.9059471632	-0.8594800662	 0.115642
H	-0.4766804319	 1.8662254466	 0.9083628186	 0.118026
H	-1.8731033006	-1.0980990592	 0.6850840941	 0.092811
H	-1.9182681935	-0.45744427	-0.986983504	 0.100303
H	 0.5603127701	-3.147020461	 0.8931643985	 0.069488
H	 2.4217845929	-2.3058684984	-1.1408701863	 0.072724
H	 2.8915233806	-1.4164663266	 1.3462912604	 0.100396
H	 2.7640181847	 0.126397211	 0.456650111	 0.092569
H	 0.4802903366	-0.6562255735	 2.119272431	 0.060846
H	 0.580078516	-0.5598021774	-2.2102766742	 0.068325
