17
gdb 30893	2.32352	1.30576	0.87777	2.2913	73.78	-0.1695	0.0499	0.2195	1281.923	0.136078	-455.163792	-455.154266	-455.153321	-455.198238	34.996	
N	-0.0644233493	 1.3495086224	 0.4367854823	-0.610709
C	-0.0460667924	-0.0201733396	 0.1108931741	 0.192743
C	-1.1198717192	-0.8175744582	-0.2315426603	 0.186147
C	-2.5650651189	-0.5356298396	-0.3983926467	-0.182764
O	-3.3996558728	-1.2199434721	 0.5464743651	-0.421757
N	-0.6146542524	-2.1143280326	-0.4070751717	-0.346884
C	 0.7169526411	-2.1168703911	-0.1611244194	 0.391726
O	 1.3787094491	-3.2962444631	-0.256266277	-0.433843
C	 1.1270033185	-0.8402262853	 0.1511676003	-0.371453
H	 0.7652149923	 1.8286350036	 0.1093091427	 0.240025
H	-0.8767658486	 1.8267809055	 0.0671031697	 0.236804
H	-2.7283475207	 0.552682771	-0.3541475458	 0.082522
H	-2.937539936	-0.8702057209	-1.3753256423	 0.106899
H	-3.0149136304	-1.059398804	 1.4154799805	 0.27551
H	-1.1766174275	-2.9408173566	-0.515869757	 0.267158
H	 2.2953728071	-3.1493026439	-0.004907373	 0.30734
H	 2.1333253802	-0.5231020355	 0.3785515085	 0.080536
