20
gdb 89396	2.884	1.40574	1.10255	3.8165	80.44	-0.2321	0.0317	0.2638	1169.1451	0.171616	-403.192108	-403.183296	-403.182352	-403.22526	33.27	
C	-0.0321968012	 1.4026849493	-0.1228629431	-0.341377
N	-0.0057434353	-0.0387986046	-0.0849093684	-0.084321
C	-1.2099164581	-0.8357274484	 0.0602285008	-0.235172
C	-0.7208250935	-2.285797572	 0.0353505524	 0.334359
C	-1.4992885081	-3.3094066579	 0.823861171	-0.485606
C	 0.0309664163	-2.6752237193	-1.2046334586	-0.326699
C	 0.7919397597	-2.2115206269	 0.0255513964	-0.206911
C	 1.1665520912	-0.7558220901	 0.0209778436	 0.425968
O	 2.280564234	-0.2776600069	 0.0898748325	-0.403132
H	 1.0020999541	 1.7487999007	-0.165452284	 0.164524
H	-0.576008197	 1.7693871238	-1.0021863025	 0.119324
H	-0.5110356059	 1.8185965305	 0.7740106907	 0.118434
H	-1.7149761419	-0.6108754037	 1.0131534257	 0.100977
H	-1.9265484299	-0.6236936403	-0.7457246484	 0.107125
H	-2.5173513447	-3.4211868622	 0.4323545478	 0.122606
H	-1.0179322565	-4.2906999247	 0.7748943196	 0.122924
H	-1.5765883529	-3.0251646837	 1.8792338857	 0.122709
H	 0.0871380895	-3.7337643282	-1.4360893256	 0.117421
H	 0.0111775972	-2.0233475265	-2.0727919543	 0.120382
H	 1.4370481331	-2.8990549787	 0.5567471487	 0.106466
