15
gdb 30228	3.6984	1.30329	1.01274	3.1265	69.1	-0.2042	0.0234	0.2277	1110.3813	0.11379	-453.929674	-453.921906	-453.920962	-453.962149	28.945	
O	 0.2472592746	 1.418918517	 0.2233298592	-0.41718
C	 0.105793196	 0.0467990794	-0.0050611779	 0.016519
C	-1.3538441531	-0.5893131657	 0.1096867673	-0.209139
N	-1.198914112	-0.9838821365	-1.3073912167	-0.046273
C	 0.0683597138	-0.4898831842	-1.4319833212	 0.279141
N	 0.6822455877	-0.8713116961	-2.5218997883	-0.349404
C	-0.2672700612	-1.6694415261	-3.1478925965	-0.22987
C	-1.4212469572	-1.7863844862	-2.3851402668	 0.29809
O	-2.5933985528	-2.4419757038	-2.5398132099	-0.430241
H	-0.1596040536	 1.8887808356	-0.5132889696	 0.288709
H	 0.8238871235	-0.4497863098	 0.6528273104	 0.120355
H	-1.4429828135	-1.4364268676	 0.7940750127	 0.136414
H	-2.1574992112	 0.1301406127	 0.2823776911	 0.129805
H	-0.0834949807	-2.1055827736	-4.1190097714	 0.101287
H	-2.5634851303	-2.9289846453	-3.3696615722	 0.311787
