18
gdb 37258	3.21486	2.14183	1.72433	1.55	76.52	-0.202	0.0748	0.2768	836.8649	0.151166	-364.722711	-364.716851	-364.715907	-364.752435	26.163	
C	 0.0202378174	 1.5202500111	-0.1231073799	-0.254714
C	 1.2675001468	 0.7137231196	-0.0172483581	-0.026438
C	 2.0536954161	 0.6744387475	 1.2531633634	-0.041745
C	 1.4185443804	 0.7742572993	 2.6165794543	-0.111921
C	 2.0142289335	-0.5419118942	 2.1585327165	-0.089498
C	 0.6060853992	-1.1946242549	 2.1833020388	-0.091525
C	 0.0035847516	 0.1315793917	 2.6502181321	-0.108704
C	-0.3834930326	-0.4636810223	 1.316466447	-0.003568
N	-0.04314652	 0.059575682	 0.0154911161	-0.116349
H	-0.2571420041	 2.1232037403	 0.7382464751	 0.115149
H	-0.3051782307	 1.9036068669	-1.0857207562	 0.111477
H	 1.842222893	 0.5159754479	-0.9214053717	 0.08517
H	 3.0357794529	 1.1368834699	 1.1985311296	 0.088586
H	 1.7815686815	 1.4544386128	 3.3761621696	 0.087519
H	 2.9085725063	-1.0428176106	 2.5048189061	 0.088073
H	 0.4247893851	-2.1947045678	 2.5555673902	 0.087497
H	-0.7111017013	 0.3091765465	 3.4438875691	 0.085175
H	-1.3725236451	-0.9153099157	 1.321859748	 0.095815
