17
gdb 122741	5.40693	0.47857	0.45003	2.7996	78.3	-0.2727	-0.0674	0.2053	2305.2437	0.132523	-458.915619	-458.905242	-458.904298	-458.953352	34.126	
O	-0.0239871324	 1.4337933062	-0.1028093249	-0.417905
C	 0.0101164539	 0.0254291634	-0.0047329398	-0.062152
C	-1.3903528456	-0.5651905727	 0.0249937004	-0.064324
O	-2.012436892	-0.1915813773	-1.1969629657	-0.257918
C	-3.3761746664	-0.5506014259	-1.2558409767	-0.206771
C	-3.9569559131	-0.1247029982	-2.5188603118	 0.044269
C	-4.4766164517	 0.21293532	-3.5548291328	 0.090257
C	-5.0565392016	 0.6324623503	-4.8050006991	 0.021946
O	-6.2078615548	 0.4420431571	-5.1218157864	-0.226182
H	-0.5896961357	 1.6348076227	-0.8573811674	 0.29137
H	 0.5711639148	-0.4269682163	-0.8376664707	 0.099131
H	 0.5310665201	-0.2226999605	 0.9256187288	 0.11367
H	-1.3550582942	-1.662001825	 0.1260902331	 0.094531
H	-1.953799997	-0.1550850866	 0.8778526299	 0.102187
H	-3.4991282202	-1.6423962959	-1.1521437772	 0.135595
H	-3.940065617	-0.092246424	-0.4251287461	 0.136923
H	-4.347468377	 1.1586785926	-5.4755376236	 0.105374
