19
gdb 59040	2.61275	1.46741	0.96872	0.7147	81.45	-0.2163	-0.0516	0.1647	1227.3497	0.159212	-419.240669	-419.231285	-419.230341	-419.275444	33.249	
C	-0.005325963	 1.4145560537	-0.0298626981	-0.326967
N	 0.1271650335	-0.0326798079	-0.0010778631	-0.12904
C	-0.0957789942	-0.6655108046	 1.2907812376	-0.362348
C	 0.0120088068	-0.7017095756	-1.1829043707	 0.295614
N	-0.1621555228	-0.1059843653	-2.315490313	-0.306514
C	-0.1343581198	-1.0680302357	-3.4180606967	-0.165989
C	-0.0238848743	-2.4757032608	-2.8125963519	-0.334168
C	 0.1622141746	-2.2098577759	-1.3268468768	 0.337513
O	 0.3919052452	-3.0282561794	-0.4696828786	-0.324896
H	 0.4731358411	 1.8307438516	 0.8614292578	 0.117639
H	 0.4739502405	 1.8072189678	-0.9268100688	 0.15498
H	-1.0581095473	 1.733307968	-0.04295924	 0.119595
H	-1.1247913306	-0.5032402941	 1.646412711	 0.11335
H	 0.0943781476	-1.7334892485	 1.2229380889	 0.182172
H	 0.5855681627	-0.228000797	 2.0285758198	 0.122667
H	-1.0371274146	-0.9413817215	-4.0264637117	 0.112825
H	 0.7126710342	-0.8388572936	-4.0769196004	 0.114125
H	-0.9317878465	-3.0727724999	-2.9496856575	 0.140973
H	 0.8098783068	-3.0722166213	-3.1922779778	 0.138468
