16
gdb 14849	2.94699	1.75461	1.22051	2.4062	67.19	-0.2529	0.0214	0.2743	996.6493	0.128115	-383.662453	-383.654012	-383.653068	-383.696058	29.599	
C	-0.1477457297	 1.4889584603	-0.2079557678	-0.241787
O	-0.1869653286	 0.2422648749	 0.4546386498	-0.229528
C	-1.3087692905	-0.5160900777	 0.1345660155	 0.094868
C	-1.3000732252	-1.3341101113	-1.1775250877	-0.10423
O	-1.5370928802	-2.5597295262	-0.4525165898	-0.273997
C	-1.3712613526	-1.9053572755	 0.8333336983	-0.132138
C	-0.1872111927	-2.3324800398	 1.5580613494	 0.388694
C	 0.77388426	-2.710870678	 2.171768207	-0.464831
H	 0.7456275291	 2.0103107659	 0.1417485878	 0.136264
H	-0.085496929	 1.3737218988	-1.3003564542	 0.112205
H	-1.0343585349	 2.0983336758	 0.0262988455	 0.109608
H	-2.2317893628	 0.0643095876	 0.2761966988	 0.079578
H	-2.0927063159	-1.1313486237	-1.9056668421	 0.104782
H	-0.3231284715	-1.3326540636	-1.67801285	 0.110907
H	-2.2617234604	-2.0538987084	 1.4562514705	 0.108875
H	 1.6297320348	-3.0376725291	 2.708952459	 0.200732
