22
gdb 22673	3.94972	0.83111	0.7144	0.995	86.27	-0.2364	0.0145	0.2509	1618.2053	0.193913	-404.337375	-404.327764	-404.326819	-404.372078	36.194	
C	-0.0676636914	 1.6131408321	-0.093361651	-0.386222
C	-0.0543087557	 0.0817353521	-0.1375011312	-0.188886
C	-1.4083354297	-0.5641131771	 0.1624910894	 0.04486
C	-1.4134835363	-2.1046656636	 0.045755966	-0.236767
C	-2.6919606102	-2.5539970905	 0.7799166406	-0.30176
C	-2.9520787556	-1.4440986742	 1.7777397852	 0.406569
C	-1.9486512417	-0.3283777007	 1.5912576196	-0.297313
N	-3.8817789281	-1.3712298668	 2.6425952838	-0.232057
O	-4.688892878	-2.5280760509	 2.6137581108	-0.398283
H	 0.9156582402	 2.0236722944	-0.3427813199	 0.112423
H	-0.7897498298	 2.0231276543	-0.8084192423	 0.114532
H	-0.3385592859	 1.9849979239	 0.9001054415	 0.120275
H	 0.2821753483	-0.2486830054	-1.1288515807	 0.093711
H	 0.6871611675	-0.3010623879	 0.5776877412	 0.09234
H	-2.1497823083	-0.1677574874	-0.5472557396	 0.072958
H	-1.3716931636	-2.4486546957	-0.9914476441	 0.09782
H	-0.5279567948	-2.5066346985	 0.5547142597	 0.09891
H	-3.5507216354	-2.6304859889	 0.1013969621	 0.126472
H	-2.6078826691	-3.5272844014	 1.2717933152	 0.125962
H	-1.1271386177	-0.4443644291	 2.3141291184	 0.111478
H	-2.389002534	 0.6566099473	 1.7573096992	 0.11931
H	-5.3401466309	-2.3345653758	 3.2959531762	 0.303668
