9
gdb 3931	8.94118	2.26257	1.80565	3.1057	46.89	-0.3037	-0.0944	0.2093	612.537	0.056315	-371.541704	-371.536471	-371.535526	-371.570981	17.556	
O	-0.0842462672	 0.0029232718	 0.0005312392	-0.215995
C	-0.0255000719	 1.1914431568	 0.0089148037	 0.213674
N	 1.2020612754	 1.9199655092	 0.0016738336	 0.07207
N	 1.2161493192	 3.2596877431	 0.0111777104	-0.221776
C	 2.5083178853	 3.5039290229	 0.0000999977	 0.093127
N	 3.2611911093	 2.3615516529	-0.0160455591	-0.178388
N	 2.4301064637	 1.3690452318	-0.0151663089	-0.074594
H	-0.8695250147	 1.8976077744	 0.0227786455	 0.145199
H	 2.9299720809	 4.4958580971	 0.0031444479	 0.166682
