20
gdb 83553	2.86082	1.34822	1.15085	4.2854	83.14	-0.295	0.036	0.331	1143.9927	0.173615	-366.026869	-366.018977	-366.018032	-366.059006	31.369	
C	-0.1144152279	 1.6953237346	-0.0012516692	-0.445436
C	 0.0201914607	 0.1811654351	 0.0144154206	 0.038254
C	 1.1246592962	-0.5608121415	-0.8059744603	-0.033355
C	 2.4359361328	 0.0373607572	-0.2622906159	-0.231846
C	 2.1028566378	 0.0234995862	 1.2677214265	-0.231851
C	 0.6864904559	-0.5790214272	 1.2067296259	-0.033363
C	 0.9224625445	-1.7561800736	 0.1933208054	-0.145358
C	-0.2262001166	-2.6061773909	-0.0644373826	 0.263058
N	-1.1274787727	-3.302608878	-0.2669491031	-0.340531
H	 0.8249421899	 2.2139731307	 0.2085107594	 0.118863
H	-0.4697191534	 2.0382188313	-0.9790333095	 0.123613
H	-0.8461541677	 2.0226120739	 0.745277919	 0.123613
H	-0.9523960964	-0.2703039025	-0.2013975279	 0.102321
H	 1.0392843368	-0.7146544675	-1.8814165682	 0.079328
H	 3.3033083865	-0.580208997	-0.5106074544	 0.104247
H	 2.6237461882	 1.0413189167	-0.6499565482	 0.107777
H	 2.7908287723	-0.6015697133	 1.8433704912	 0.104247
H	 2.1088037171	 1.0198770536	 1.7157004941	 0.107777
H	 0.1623971138	-0.7511035684	 2.1465408401	 0.079331
H	 1.7988695921	-2.3845535493	 0.378433637	 0.10931
