20
gdb 55953	3.77066	0.88671	0.88217	3.4136	82.08	-0.2396	0.0182	0.2578	1431.4122	0.171102	-403.200355	-403.190994	-403.19005	-403.236812	33.66	
C	-0.0833891961	 1.5244559934	-0.0225472043	-0.483769
C	 0.0826719044	 0.0124200235	-0.0802907783	 0.407078
O	 1.1294746865	-0.5059410873	-0.426943509	-0.376292
N	-1.0215096978	-0.7054913353	 0.2828939972	-0.315934
C	-1.0578210371	-2.1600612138	 0.2914264804	 0.028382
C	-1.4242784528	-2.7032177815	 1.7024251893	-0.263809
C	-2.9061209854	-2.9766953162	 1.5962661938	-0.065703
C	-3.3210189277	-2.9738529207	 0.3294049083	-0.065724
C	-2.1886715793	-2.697987138	-0.631666224	-0.263668
H	 0.1138300222	 1.9367204219	-1.0156592375	 0.151373
H	-1.0734023528	 1.8499877442	 0.3078745876	 0.107588
H	 0.6706097772	 1.9339217385	 0.6548649267	 0.151405
H	-1.8562140189	-0.2134306953	 0.5587293955	 0.241577
H	-0.0660614961	-2.4718093346	-0.0341475221	 0.12009
H	-0.8726523002	-3.6268437473	 1.9252818828	 0.114771
H	-1.15879409	-1.9858254502	 2.4862703346	 0.105492
H	-3.5269776823	-3.1874207974	 2.4599098688	 0.093435
H	-4.3327840465	-3.1818868364	-0.0004461274	 0.093437
H	-2.4373331517	-1.9770102393	-1.4177322017	 0.105515
H	-1.8770349255	-3.6199688281	-1.1414408408	 0.114756
