18
gdb 37146	3.93457	1.88483	1.64967	1.6044	78.77	-0.225	0.0794	0.3044	859.2239	0.150663	-364.685724	-364.67997	-364.679026	-364.715331	25.834	
C	-0.0274329007	 1.5062124354	-0.1589715269	-0.291493
C	 1.3087665503	 0.8197188401	 0.0293408673	-0.048172
C	 0.0165606919	 0.0034295482	-0.0186482557	-0.188973
C	 0.328278492	-0.7586193711	-1.2874458041	 0.342886
C	-0.0741711092	-1.6939266139	-2.4393198308	-0.342268
C	 1.3393369181	-1.155310109	-2.7851072943	-0.035092
C	 1.8403217999	-1.1908129627	-1.3261505439	-0.072203
C	 2.0504058189	 0.3326366892	-1.234760822	-0.038007
N	 0.9471369349	 0.2534351787	-2.2897160569	-0.173307
H	-0.407271034	 2.0629637481	 0.6917882857	 0.106398
H	-0.2677317839	 1.9259803063	-1.1277723603	 0.139876
H	 1.8606203793	 0.9596141016	 0.9516412813	 0.08733
H	-0.3847099886	-0.4993478081	 0.852167306	 0.091604
H	-0.1579531817	-2.7586559799	-2.2086446164	 0.101289
H	-0.8886517859	-1.3486434326	-3.081194026	 0.111765
H	 1.8995419174	-1.2858297057	-3.7113095952	 0.081807
H	 2.31483449	-2.0135112706	-0.779971675	 0.060409
H	 2.978801561	 0.8386796259	-1.508428723	 0.066153
