16
gdb 18771	4.02097	2.4115	2.09812	1.7497	66.43	-0.2401	0.085	0.3251	714.3088	0.131398	-346.52198	-346.516042	-346.515098	-346.551656	24.459	
C	-0.0176223333	 1.4438674528	 0.0175052713	-0.52244
C	 0.0140408291	-0.0527741802	-0.0259540586	 0.350959
C	-0.9459969582	-0.968410674	 0.7387792423	-0.142131
C	 0.5491942867	-1.0675797815	 0.9632693395	-0.17206
C	 0.584424714	-2.1019961436	-0.2019643247	-0.094613
C	-0.9778723195	-2.1532040288	-0.2636483559	 0.076867
O	-1.0083517731	-1.5993932922	-1.599338578	-0.29418
C	 0.2554837293	-0.9915904081	-1.2484925474	 0.01427
H	 0.9417942621	 1.8755591099	-0.289499137	 0.119386
H	-0.7925338649	 1.8396960427	-0.6491393083	 0.128683
H	-0.2328361109	 1.805505016	 1.0285979358	 0.121536
H	-1.7206593033	-0.5861770506	 1.3898945866	 0.088596
H	 1.1409070017	-0.9477536978	 1.8592436101	 0.090469
H	 1.2546167516	-2.9433351751	-0.3574105342	 0.078758
H	-1.6273852654	-3.0147852781	-0.1170120683	 0.079777
H	 0.8558056742	-0.6714369515	-2.0995952532	 0.076125
