23
gdb 76515	2.66895	1.1916	1.15207	0.1861	90.85	-0.229	0.034	0.2631	1260.2447	0.205908	-351.162129	-351.152798	-351.151853	-351.196413	35.897	
C	-0.0460785845	 0.8514912116	-2.0571240575	-0.414933
C	 0.0340568975	-0.265367756	-1.0389410463	-0.062559
C	 1.3005794106	-0.6022646529	-0.2786317294	-0.062603
C	 2.6017561436	 0.1472520099	-0.4675003612	-0.414929
C	 0.1102066835	-0.0152243938	 0.4547850483	 0.329904
C	 0.1350725104	 1.4089398475	 1.0442362337	-0.34336
C	-0.6651532106	 1.2777360019	 2.316482679	-0.060649
C	-1.1141902141	 0.0414215416	 2.5166421211	-0.061346
C	-0.704181298	-0.9038557243	 1.4174208871	-0.334585
H	 0.5728646449	 1.7113801802	-1.7889072886	 0.117639
H	 0.2847728044	 0.5054046602	-3.0428433262	 0.114372
H	-1.0757540408	 1.2120215906	-2.163776912	 0.115616
H	-0.5699932413	-1.129105789	-1.3124183476	 0.073529
H	 1.4490873983	-1.6661727293	-0.1004238056	 0.073526
H	 2.4502775218	 1.2121002424	-0.6613879384	 0.117643
H	 3.2346272519	 0.0653524409	 0.4237654639	 0.115611
H	 3.1684969009	-0.2613226622	-1.3117474949	 0.114369
H	 1.1542834028	 1.7634196351	 1.2500413964	 0.102887
H	-0.3092356776	 2.1534170009	 0.3696148599	 0.102885
H	-0.8376320022	 2.1214268011	 2.9761642929	 0.087127
H	-1.7095082831	-0.2787233825	 3.3649584575	 0.087686
H	-1.5776175989	-1.3545678352	 0.9248474871	 0.101082
H	-0.1108202594	-1.7435668988	 1.8066478608	 0.101086
