21
gdb 107619	2.47327	1.50214	1.12744	2.6623	78.54	-0.2466	0.0668	0.3134	1153.2796	0.182576	-424.219642	-424.210637	-424.209693	-424.25306	34.465	
C	 0.0174026548	 1.5513967392	-0.1287625233	-0.401407
C	 0.0426202268	 0.0379242632	 0.0068134151	 0.07868
O	 0.7716475094	-0.5090816009	-1.0971224713	-0.271398
C	 1.2516781245	-1.7955159538	-0.7298276863	-0.095473
C	 1.5224267298	-1.716470648	 0.7620730666	-0.127905
C	 2.2331755894	-0.4758412971	 1.2379744237	-0.325428
C	 0.7247024355	-0.529777957	 1.2529595773	 0.361117
C	-0.0308148781	-0.5570436625	 2.5495243458	-0.19135
O	-0.1837569083	 0.7787894145	 3.0213023318	-0.416585
H	 1.0332588992	 1.9559655567	-0.1084730619	 0.118404
H	-0.4511564138	 1.8407679678	-1.0737792484	 0.114726
H	-0.5440807624	 1.9854990153	 0.7013841256	 0.131667
H	-0.9946947425	-0.3454200504	-0.007540399	 0.055878
H	 0.5023866535	-2.5781250738	-0.9364089092	 0.087248
H	 2.1381762559	-2.0005515978	-1.3397893907	 0.106398
H	 1.5885566039	-2.6347867965	 1.3350692989	 0.08486
H	 2.7360393235	-0.5239949158	 2.1976011048	 0.110791
H	 2.7210272808	 0.1513770375	 0.4990734968	 0.122817
H	-1.0149525534	-1.0291644561	 2.3930694368	 0.085743
H	 0.5161557349	-1.1726104617	 3.281246374	 0.083996
H	-0.7572698634	 0.7592286771	 3.7933750028	 0.28722
