15
gdb 62436	3.99705	1.27922	1.24363	1.7405	72.27	-0.2312	0.0109	0.2421	1022.2317	0.112822	-416.752834	-416.745088	-416.744144	-416.784771	29.936	
N	-0.1112601024	 1.4676636379	 0.0415611745	-0.558233
C	-0.0383210748	 0.0345829787	 0.0058835214	 0.01873
C	 1.0144575233	-0.5980393839	-0.7448980799	 0.300404
C	 1.9027881578	-1.111130487	-1.3754355921	-0.431845
C	-0.4627139668	-0.724343822	 1.261844004	 0.024667
O	-1.1844442478	 0.0265819024	 2.2142313191	-0.205276
C	-2.3336459104	 0.3889559	 1.5832348338	 0.118824
N	-2.5477237055	-0.0411191368	 0.4054669687	-0.262932
C	-1.3629128733	-0.7705683962	 0.0451724794	-0.073184
H	 0.7528703357	 1.8547227312	 0.4067261469	 0.239214
H	-0.2470885896	 1.8393326796	-0.8930128192	 0.241936
H	 2.6865321485	-1.5580079025	-1.9355469286	 0.195642
H	 0.1470410932	-1.5084046484	 1.6898226043	 0.127066
H	-2.9943422064	 1.015084379	 2.1683721324	 0.147313
H	-1.4690415115	-1.606437732	-0.6335260646	 0.117675
