24
gdb 10218	2.15308	1.15398	0.81374	1.3365	82.04	-0.2609	0.0809	0.3418	1496.4433	0.221579	-351.410757	-351.399876	-351.398931	-351.447203	38.566	
C	 0.6733091562	 1.5703375413	-0.0136563746	-0.388267
C	 0.3851253934	 0.0652607861	-0.0157372025	-0.181043
C	 0.8268710786	-0.6763519662	 1.2647290814	 0.053648
C	-0.1114214091	-0.3533623887	 2.4465592023	-0.180554
C	 0.4614329355	-0.6884029826	 3.8275010075	-0.388817
C	 0.9101708035	-2.1969994594	 1.0254436749	-0.182524
C	 2.1476487095	-2.6459807621	 0.2566484046	-0.080193
O	 2.0735078144	-4.056912964	 0.1038461321	-0.421119
H	 1.747391922	 1.7643626328	 0.0850059384	 0.11231
H	 0.3370649029	 2.0354502207	-0.945786472	 0.111216
H	 0.1689166533	 2.087038074	 0.8089148713	 0.118366
H	-0.6897842164	-0.1062829069	-0.1659209768	 0.093566
H	 0.8818672351	-0.3807083042	-0.8852299224	 0.091825
H	 1.8334758046	-0.3160681366	 1.5310653405	 0.059071
H	-0.3641174451	 0.7129348235	 2.4269753792	 0.091893
H	-1.0588367403	-0.8896663653	 2.2978270806	 0.09344
H	-0.2521908602	-0.4385874652	 4.6190815699	 0.111194
H	 0.7020020744	-1.7513917574	 3.9291547526	 0.120018
H	 1.3802087924	-0.1225882484	 4.0191330008	 0.112378
H	 0.9093481831	-2.7367141372	 1.9784553543	 0.10212
H	 0.0185761996	-2.5340779998	 0.4808440175	 0.100608
H	 2.1998990668	-2.1478503177	-0.7241604206	 0.084863
H	 3.0521860478	-2.3543061494	 0.816120297	 0.082254
H	 2.846514918	-4.3462644371	-0.3893174258	 0.283748
