18
gdb 75180	4.70024	0.98036	0.83951	5.027	79.58	-0.2552	0.0035	0.2587	1350.9689	0.147831	-401.971218	-401.962643	-401.961699	-402.004461	31.84	
C	 0.0282273177	 1.5132793725	 0.0861928845	-0.480123
C	-0.0211221719	 0.0170268614	-0.0360735211	 0.291523
C	-0.0700098802	-0.632643222	-1.1995521869	-0.171591
C	-0.0667069327	-2.1352840968	-1.2923890293	-0.258234
C	 0.4106577329	-2.7182451536	 0.0479959411	-0.030294
O	-0.2933136337	-2.1319824093	 1.1272741296	-0.254404
C	-0.0037792112	-0.7498974753	 1.2644530202	-0.151307
C	 0.2114904243	-4.1721086681	 0.1172882826	 0.280726
N	 0.0740894954	-5.3184762345	 0.1297527824	-0.316151
H	 0.9202041445	 1.8387393433	 0.6369083191	 0.129373
H	 0.0446781994	 1.9926594546	-0.8956757415	 0.129807
H	-0.8380988222	 1.8966140607	 0.6400557161	 0.130809
H	-0.1045054925	-0.076850631	-2.1331480911	 0.091508
H	-1.0662276746	-2.5233008746	-1.5250087265	 0.13615
H	 0.5973307015	-2.4762593922	-2.0951510679	 0.124265
H	 1.4917754155	-2.526063753	 0.1531430271	 0.115677
H	 0.9710204358	-0.6109458946	 1.7670891482	 0.10468
H	-0.7682508682	-0.3596320775	 1.9461772934	 0.127587
