19
gdb 81344	2.65928	1.52973	1.20147	1.2658	76.42	-0.2302	0.0088	0.239	1095.9147	0.159982	-423.014154	-423.006226	-423.005282	-423.046165	31.583	
C	 0.0284768439	 1.4983754622	 0.0480500094	-0.504021
C	-0.0036853992	 0.0018393413	-0.0143048453	 0.366349
C	-0.0580868295	-0.7294160375	-1.1307524607	-0.177121
C	-0.0592022111	-2.2407670685	-1.0361398523	-0.26904
C	 0.0500494653	-2.6409786176	 0.438350483	 0.030964
O	-0.9388850711	-1.8852813125	 1.2111296054	-0.317802
C	 0.0446445103	-0.7987476063	 1.2742746375	-0.079411
C	 1.1631711724	-1.8717307768	 1.1943752075	 0.184435
O	 1.5165058588	-2.450353803	 2.4233735659	-0.457352
H	 0.9300413188	 1.8575663817	 0.5614147359	 0.127975
H	 0.0101365569	 1.9421173113	-0.951049307	 0.124258
H	-0.8272876195	 1.889336143	 0.6133214665	 0.13063
H	-0.1187419732	-0.2673786119	-2.1126677303	 0.087057
H	-0.9757546677	-2.6588640675	-1.4739748691	 0.11611
H	 0.7777500228	-2.6720601595	-1.6024835009	 0.109359
H	-0.0225768151	-3.7186681038	 0.6120380246	 0.076677
H	-0.0498125527	-0.2051774889	 2.1874052492	 0.072557
H	 2.0872008192	-1.6177054353	 0.6721382623	 0.090975
H	 0.6912819608	-2.6768508306	 2.8706743184	 0.287402
