16
gdb 29333	2.03799	1.84705	0.97586	1.212	81.73	-0.195	0.0006	0.1956	1163.0306	0.123182	-400.752643	-400.743636	-400.742691	-400.786099	33.533	
C	 0.1074432723	 1.4828240292	 0.0753557176	-0.505297
C	-0.0140906992	 0.0041522518	 0.0445999126	 0.261549
C	-1.10332072	-0.8274374618	-0.0468504349	 0.035933
C	-2.4653277195	-0.4699534195	-0.1321903835	 0.198225
C	-3.641669393	-0.2112699677	-0.1949785955	-0.439883
C	-0.5843498	-2.1811815389	-0.0256958241	 0.111433
N	-1.3694221803	-3.323445116	-0.1671313439	-0.62147
C	 0.765337038	-2.0565255123	 0.0795483646	-0.097573
O	 1.1159486454	-0.7243564381	 0.1218016796	-0.181999
H	 0.713589642	 1.8504259768	-0.7604019511	 0.142387
H	-0.8855054719	 1.9315774973	 0.0080745356	 0.147844
H	 0.5834942727	 1.825261897	 1.0011636318	 0.141076
H	-4.6725064126	 0.0327554579	-0.263186542	 0.185868
H	-2.3257334635	-3.1730524261	 0.1270222921	 0.251141
H	-0.9859310591	-4.1468889216	 0.2753794123	 0.24597
H	 1.5782466986	-2.759738988	 0.127581889	 0.124795
