13
gdb 20409	4.96133	2.17212	1.54126	1.9793	58.82	-0.2252	-0.0049	0.2202	757.5328	0.099264	-394.771117	-394.765067	-394.764123	-394.801775	22.141	
C	 0.0418827727	 1.3627676169	-0.1170089414	-0.090713
C	 1.5245605064	 1.8568255059	 0.0768971828	-0.375871
C	 2.1245311773	 0.6152249161	 0.653004644	 0.246421
N	 3.2572661464	 0.1390557734	 1.1501606709	-0.302194
N	 2.9373088405	-1.1350452812	 1.4010466899	-0.10823
N	 1.6756325335	-1.5311013833	 1.1099756197	-0.33139
C	 1.179489174	-0.4060857547	 0.6335272135	 0.41086
O	-0.0269825083	-0.0787598799	 0.1387470719	-0.271489
H	-0.6349643462	 1.8490592379	 0.5910872761	 0.129242
H	-0.328638078	 1.5266384353	-1.1304333999	 0.130847
H	 1.9806966124	 2.1445135701	-0.8760153996	 0.135283
H	 1.5672497833	 2.7256664409	 0.7392383021	 0.135249
H	 3.596638846	-1.7713909473	 1.81501431	 0.291985
