18
gdb 81922	2.19538	1.95633	1.27896	3.1046	70.73	-0.2551	-0.0174	0.2376	1014.0375	0.148157	-439.090314	-439.082154	-439.08121	-439.122966	31.345	
C	 0.1852615907	 1.6199970399	 0.0831378879	-0.394927
C	 0.0208430772	 0.1004960891	 0.0103990055	-0.068087
C	 0.7532904429	-0.6012878867	-1.1546426843	-0.039658
C	 2.120156673	-0.1805034816	-1.5707867446	-0.247034
N	 1.9484073412	-1.3111161869	-0.6416821089	-0.114322
C	 2.0384747429	-0.9837661258	 0.7262934752	 0.337592
O	 3.0378682113	-0.9264318481	 1.3973218711	-0.339855
C	 0.6366112445	-0.6410902558	 1.235579266	 0.053517
O	 0.6837943147	 0.0736455535	 2.4346285668	-0.434303
H	 1.2294148112	 1.9178051754	 0.2195411056	 0.121025
H	-0.1871091064	 2.0921712527	-0.8309989165	 0.115478
H	-0.370986158	 2.0157406874	 0.9355525555	 0.140727
H	-1.0446281024	-0.1302821735	-0.065082316	 0.090326
H	 0.1544257425	-1.1665020178	-1.8624142897	 0.106527
H	 2.4947312936	-0.4581730741	-2.551491108	 0.134345
H	 2.5397859604	 0.7363004765	-1.1685359833	 0.139062
H	 0.0928056511	-1.5915971862	 1.36841709	 0.104284
H	 1.5999663696	 0.0016040819	 2.7448821578	 0.295303
