17
gdb 41579	3.01844	1.83886	1.79269	2.5398	65.11	-0.2488	0.0686	0.3175	849.2598	0.139396	-458.934006	-458.92784	-458.926896	-458.964675	25.201	
C	 0.0313244673	 1.5699237093	 0.2064802819	-0.097803
O	 1.4724525384	 1.5671361602	 0.1242097232	-0.28355
C	 1.5057328947	 0.1361444966	-0.0120597634	 0.114891
C	-0.0398059995	 0.0466452238	-0.046357673	-0.090738
C	-0.2523858048	-0.5590094698	-1.4560461325	 0.016626
C	 0.130549311	 0.422074408	-2.5747539737	-0.088455
O	 1.5593778779	 0.4954592967	-2.4264962315	-0.255396
C	 1.8625125294	-0.4429996211	-1.4121445111	 0.144054
O	 0.8800556437	-1.4593709501	-1.533600446	-0.256641
H	-0.3093840745	 1.860596339	 1.2074855501	 0.104916
H	-0.4282861286	 2.2386328363	-0.5292242924	 0.107665
H	 2.0608958824	-0.3501021743	 0.7963993058	 0.083801
H	-0.5389766856	-0.543946345	 0.7207947946	 0.092455
H	-1.1771016532	-1.1121479911	-1.6098102002	 0.091588
H	-0.1187024491	 0.013795255	-3.5608619768	 0.110789
H	-0.3099093126	 1.4173211463	-2.4782881055	 0.111825
H	 2.864632403	-0.8446187398	-1.5566347594	 0.093974
