17
gdb 2212	3.6237	3.19459	2.27907	1.6443	63.48	-0.2366	0.0782	0.3148	667.264	0.148616	-309.692577	-309.685927	-309.684983	-309.722913	25.472	
C	-0.1309172847	 1.5565173553	 0.1164824815	-0.473118
C	 0.0509389738	 0.0622707315	 0.083537548	 0.464389
C	-1.1851778933	-0.875286609	 0.1285069607	-0.264733
C	-0.460577179	-1.7682630796	 1.1844609159	-0.224116
C	 0.7731742996	-0.8279592586	 1.148168057	-0.12634
C	 1.7637230078	-1.125978977	 0.0146188085	-0.081001
O	 0.9930802171	-0.3587125384	-0.93843276	-0.328137
H	 0.8306909374	 2.0653175686	 0.233482196	 0.120918
H	-0.5838754909	 1.8999719037	-0.8208900202	 0.128028
H	-0.788398945	 1.8534120499	 0.9399944211	 0.114038
H	-2.0929317819	-0.3971355434	 0.5074159354	 0.096672
H	-1.4053668358	-1.3425823635	-0.833597703	 0.108172
H	-0.9633623461	-1.782409686	 2.1541190489	 0.10214
H	-0.2646674945	-2.8024390333	 0.8877788153	 0.100031
H	 1.1723744193	-0.4605837123	 2.0934717534	 0.070913
H	 2.7654634671	-0.697701088	 0.1519508866	 0.096879
H	 1.8666074091	-2.1784933698	-0.2807323451	 0.095266
