19
gdb 106610	2.5855	1.54199	1.31342	3.1187	74.51	-0.2397	-0.0115	0.2283	1050.6813	0.160845	-423.030337	-423.022334	-423.02139	-423.062848	31.172	
O	 0.0278020012	 1.3827245432	-0.2592379495	-0.424082
C	 0.0334042421	 0.0194985134	 0.1371327744	-0.184673
C	-1.3713001137	-0.5395608935	 0.1194611514	 0.206523
C	-1.7474619937	-2.0634157468	 0.0450771515	-0.305013
C	-3.0885244679	-1.5523373016	-0.5928421154	-0.137669
C	-3.7061385035	-0.7671937908	 0.589544987	-0.227208
C	-2.4309495633	-0.0126142988	 1.114456802	-0.257995
C	-2.176922916	-0.4737685646	-1.189310745	 0.421438
O	-2.0107095075	 0.0675545104	-2.2474723178	-0.355349
H	-0.3374193491	 1.4065619567	-1.1529941301	 0.298072
H	 0.6817770247	-0.586176879	-0.5160734418	 0.090904
H	 0.4657274121	-0.0114233991	 1.1436697997	 0.108118
H	-1.1239260449	-2.6298117756	-0.649486202	 0.117547
H	-1.8411546483	-2.5862006005	 1.0001487651	 0.108999
H	-3.7360993907	-2.1840395404	-1.1968550061	 0.086234
H	-4.4981871317	-0.0863920601	 0.267694159	 0.115271
H	-4.1265195137	-1.4438569032	 1.3379623663	 0.109164
H	-2.1796627738	-0.2848350196	 2.1437340455	 0.104788
H	-2.5227757421	 1.0741555097	 1.0639830658	 0.124929
