21
gdb 108109	3.32442	1.33127	1.29213	1.25	81.3	-0.2519	0.0776	0.3295	1093.021	0.185761	-387.101595	-387.094001	-387.093057	-387.133573	31.017	
O	-0.0201071232	 1.3323202734	 0.4189204316	-0.423241
C	-0.0389690169	-0.002237832	-0.0811366823	-0.211455
C	-1.4521289431	-0.4914409628	-0.0763159067	 0.394289
C	-2.5480545212	 0.1612948248	-0.9174206121	-0.270079
C	-3.7062061397	-0.7658965148	-0.4817889564	-0.050056
C	-3.1048992604	-2.1660371695	-0.7550251483	-0.223494
C	-1.809975051	-1.965917883	 0.0275350608	-0.121465
C	-2.1314234389	-1.0238100542	 1.1744932308	-0.085422
C	-3.6124118675	-0.6774992854	 1.0614648652	-0.222607
H	 0.871505496	 1.6768913305	 0.3119489517	 0.284306
H	 0.3665895275	-0.0381202498	-1.1060433622	 0.081858
H	 0.5857431247	-0.6661015012	 0.5388331167	 0.079533
H	-2.7111997649	 1.2087231341	-0.6475139791	 0.104958
H	-2.3429776028	 0.1059141569	-1.9929313449	 0.083522
H	-4.6832296233	-0.5642352421	-0.9202005705	 0.058571
H	-3.7222044176	-2.977578518	-0.354608721	 0.091652
H	-2.9376088423	-2.3522567355	-1.8214494851	 0.090294
H	-1.0492025712	-2.7317097699	 0.1124742374	 0.074153
H	-1.6068731213	-1.0729163245	 2.1198643677	 0.078453
H	-3.8454536205	 0.3227831525	 1.4409569266	 0.096803
H	-4.2622383222	-1.4010882893	 1.56596347	 0.089427
