20
gdb 101187	3.96518	0.95769	0.89469	2.8271	75.66	-0.2439	0.0619	0.3058	1352.4035	0.171922	-440.188311	-440.179763	-440.178818	-440.222016	32.746	
O	-1.8679151814	 1.6932281195	 1.2346342683	-0.428506
C	-1.9645935142	 0.2922111923	 1.3788763513	-0.053851
C	-1.4922612769	-0.4227828183	 0.114591585	 0.04672
O	-0.1520746519	 0.0188040702	-0.1018359357	-0.456614
C	-1.4815713733	-1.9345316345	 0.26407704	 0.057451
C	-2.6134246768	-2.9072572639	-0.1605793732	-0.086835
C	-2.2058604088	-2.5757023212	-1.611406707	-0.179238
N	-0.8345274509	-2.7071919002	-0.9167199881	-0.175562
C	-1.468609813	-3.9426477958	-0.2470314792	-0.166699
H	-0.9761368635	 1.8617395708	 0.9068590874	 0.295003
H	-1.3695414909	-0.0676847195	 2.2345682589	 0.086998
H	-3.0168187224	 0.0586013568	 1.57404958	 0.10528
H	-2.1324862367	-0.0896060097	-0.7139494113	 0.074297
H	 0.2567434122	-0.6062011777	-0.7139052983	 0.300026
H	-0.9774116397	-2.187796187	 1.2041657081	 0.078949
H	-3.6148575336	-3.0257474747	 0.2658044823	 0.07278
H	-2.3712088949	-3.3438014037	-2.3712721466	 0.105178
H	-2.4168751939	-1.5862205727	-2.0161339107	 0.112083
H	-0.9686901652	-4.2428389917	 0.6776208612	 0.106763
H	-1.5905140342	-4.7866208488	-0.9304712126	 0.105778
