17
gdb 30342	3.06264	1.69089	1.14027	4.9654	73.61	-0.1989	0.0372	0.2362	1042.8391	0.139013	-418.038523	-418.031199	-418.030255	-418.070446	28.023	
C	-0.0571853577	 1.5613920295	-0.0215265287	-0.410914
C	 0.0015199072	 0.040528145	 0.0543760236	 0.007027
C	 0.7764370718	-0.6210649627	-1.1244304109	-0.11097
O	 1.4836745162	-1.7525788533	-0.5796048099	-0.279182
C	 1.5928965988	-1.514325239	 0.7529138064	 0.367225
C	 2.2143897175	-2.0151355478	 1.8604202699	-0.228243
N	 1.7889839932	-1.2841284749	 2.9613914174	-0.267261
C	 0.9413066024	-0.3851463138	 2.5204800017	-0.023192
N	 0.8009604841	-0.4766534361	 1.1572900555	-0.053694
H	 0.9499906336	 1.9864796752	-0.0592268839	 0.137013
H	-0.6035790237	 1.8741433548	-0.9168468885	 0.13122
H	-0.5764660647	 1.9771233041	 0.8464776785	 0.136131
H	-1.0164356698	-0.3663012361	 0.1176650882	 0.107118
H	 0.1241106039	-0.9773818893	-1.9233272048	 0.130412
H	 1.5048613989	 0.0878656328	-1.5392849789	 0.118108
H	 2.9197455753	-2.8241858464	 1.9455227274	 0.11234
H	 0.4306561029	 0.355952688	 3.1152005268	 0.126862
