16
gdb 7321	4.67694	1.03243	0.85905	1.4665	61.97	-0.2418	-0.0835	0.1583	1288.3172	0.126386	-420.90364	-420.894011	-420.893067	-420.939475	31.995	
C	 0.0075025633	 1.4847988935	 0.0098739485	-0.474084
C	 0.0365249897	-0.0233894324	 0.0015771846	 0.307425
O	 1.0468995357	-0.6863972416	-0.0116642235	-0.270656
C	-1.3432135683	-0.7299056424	 0.0113285746	 0.263545
O	-2.3545297315	-0.0639594667	 0.0242966008	-0.287677
C	-1.323085184	-2.2376567266	 0.00294542	-0.28021
C	-2.7148016406	-2.8502088665	 0.0128522688	-0.080106
O	-2.5486628752	-4.2588417073	 0.0036229205	-0.421674
H	 1.0263113804	 1.8722090177	 0.001402195	 0.142067
H	-0.550263527	 1.8535853001	-0.8568397658	 0.156356
H	-0.5320368493	 1.8442289915	 0.8919384005	 0.156352
H	-0.7539999448	-2.577861276	-0.8712054634	 0.149147
H	-0.7375221496	-2.5872434539	 0.8623891917	 0.149128
H	-3.2626865759	-2.50914113	 0.903532163	 0.100823
H	-3.2794848551	-2.4995376621	-0.863491627	 0.100829
H	-3.4211558478	-4.6629859374	 0.0095258217	 0.288735
