20
gdb 37032	2.80507	1.72127	1.41898	2.0726	83.51	-0.2079	0.0094	0.2174	1004.2225	0.173975	-365.980997	-365.973625	-365.972681	-366.012613	30.284	
C	-0.0165882906	 1.5696032039	 0.2556081474	-0.266855
C	 1.5570097173	 1.6030782884	 0.2662089884	-0.270776
C	 1.5385946866	 0.1294649283	-0.1767615245	 0.273867
N	 0.8056071081	-0.6035145458	 0.9009500758	-0.407346
C	 0.0555488541	 0.0948109619	-0.1742284148	 0.272159
C	-0.7202438851	-0.6624864237	-1.2279705113	-0.331786
C	 0.1266294769	-0.853432489	-2.5160420637	-0.261135
C	 1.6120199087	-1.0567374503	-2.2848637542	-0.046935
C	 2.2817119975	-0.587045698	-1.2252312123	-0.205179
H	-0.5212459946	 1.7600732512	 1.2062112899	 0.103334
H	-0.43726382	 2.2177959176	-0.517605581	 0.096901
H	 1.9666920258	 2.2758931452	-0.4902020237	 0.101999
H	 2.0366937991	 1.7954777795	 1.228655187	 0.104399
H	 0.8377556738	-1.5910428627	 0.6489065091	 0.219141
H	-1.0209770335	-1.6434478978	-0.8415867314	 0.106571
H	-1.6492742194	-0.1371110944	-1.4730829951	 0.106523
H	-0.2719252672	-1.6943357488	-3.0943915356	 0.105792
H	 0.0046498123	 0.0255684856	-3.166533652	 0.117345
H	 2.1489467146	-1.594803079	-3.0627938867	 0.092273
H	 3.3542687855	-0.7398548121	-1.1301993213	 0.089707
