16
gdb 56409	3.99473	0.67518	0.60953	4.6336	81.11	-0.2615	-0.0094	0.252	1784.4969	0.123029	-400.705524	-400.696158	-400.695214	-400.74119	32.84	
O	-0.6564883818	 0.9716990231	 0.1629253866	-0.385234
C	 0.1011395367	-0.189304209	-0.1336733672	-0.183798
C	 1.0415526737	 0.0629422555	-1.2559714337	 0.281399
N	 1.7633676785	 0.2820886892	-2.1306689161	-0.320282
C	 0.8248710594	-0.7331950207	 1.0152067862	 0.06858
C	 1.4151253358	-1.1513004895	 1.9796529792	 0.096818
C	 2.12078929	-1.6498000686	 3.1204407733	-0.162498
C	 1.4316715192	-1.7058171057	 4.4775799265	-0.251827
C	 1.7191680111	-2.9790348528	 3.7448472261	-0.250143
H	-0.0678238678	 1.601400565	 0.5961585381	 0.297816
H	-0.6345332011	-0.9215978163	-0.4893542624	 0.16602
H	 3.1815825743	-1.4187836211	 3.1352463936	 0.12237
H	 2.0345529312	-1.4540797053	 5.3423611291	 0.127007
H	 0.4052888281	-1.3623347582	 4.5224640011	 0.133301
H	 0.8893070099	-3.5052234054	 3.2890221955	 0.132812
H	 2.5222234527	-3.6149969303	 4.098950314	 0.12766
