16
gdb 44948	2.70678	1.84739	1.63652	2.1465	64.61	-0.2577	0.0179	0.2756	883.4929	0.127297	-475.033509	-475.026953	-475.026009	-475.064363	26.226	
N	-0.0451432336	 1.2750257453	-0.0207283676	-0.551107
C	-0.0079623387	 0.0182442318	-0.0124451771	 0.446874
O	 1.1072048606	-0.7767487021	-0.0358887171	-0.245404
C	 0.6346328384	-2.132255646	 0.0507045193	 0.167486
C	 0.4691509362	-2.5341392535	 1.5188614754	-0.099483
O	-0.3621096112	-1.6070571715	 2.1983092813	-0.260089
C	-1.5461898143	-1.2640114759	 1.4843905843	-0.08209
C	-1.1970647899	-0.9303136495	 0.0321403509	-0.052145
O	-0.6353977382	-2.1132381096	-0.561725566	-0.259317
H	 0.8957229925	 1.6721869403	-0.0244208903	 0.229916
H	 1.3105466837	-2.7827011391	-0.5074990414	 0.109347
H	 0.0495008729	-3.552065337	 1.546105269	 0.105338
H	 1.4304569438	-2.5291617002	 2.0395211148	 0.126255
H	-2.2695733134	-2.0932855023	 1.4925831623	 0.106594
H	-1.9751342193	-0.4001773527	 1.9982683836	 0.137051
H	-2.0508002397	-0.592513748	-0.5534078014	 0.120772
