14
gdb 2284	7.7071	1.43215	1.39873	2.7698	55.39	-0.2564	0.0197	0.2761	858.6884	0.113895	-361.710299	-361.703355	-361.702411	-361.742314	23.656	
O	-0.064497749	-0.1173166334	 0.3895626766	-0.314338
C	-0.0584957718	 1.0647036708	 0.1260565484	 0.15477
N	 1.0525754921	 1.8006766357	-0.1689568539	-0.286851
C	 2.3797307373	 1.2497068847	-0.2034388877	 0.003511
C	 3.2683120488	 1.5281604502	-1.4391318363	-0.089864
O	 4.3437537828	 1.992614579	-0.6007138331	-0.26662
C	 3.5059840336	 1.9747980159	 0.571068231	-0.089858
H	-0.9765047489	 1.6839706051	 0.0969347519	 0.079316
H	 0.9295630243	 2.7810301401	-0.3724009506	 0.248327
H	 2.2866752426	 0.1929648694	 0.0423631858	 0.13837
H	 3.5578029943	 0.6675276111	-2.051499166	 0.11825
H	 2.8793749973	 2.3214106916	-2.094654139	 0.093366
H	 3.2338574254	 2.9875537423	 0.9034785346	 0.09337
H	 3.9665687211	 1.4356763675	 1.4057518884	 0.11825
