12
gdb 24897	3.51553	1.32169	0.96056	3.3653	78.05	-0.2506	-0.0979	0.1526	1110.35	0.077043	-435.492426	-435.485199	-435.484254	-435.524381	26.773	
O	-0.081640103	-0.0279362013	 0.0042177908	-0.321546
C	-0.0046582841	 1.1672135663	 0.0097035106	 0.382744
O	-1.1804449725	 1.9210186623	 0.0297764354	-0.239813
C	-1.1372830607	 3.2773557933	 0.0365228796	 0.214231
C	 0.0522102558	 3.9348548591	 0.023871385	-0.13405
N	 1.2501090584	 3.265812389	 0.0039142801	-0.201863
C	 1.2208948232	 1.9738954701	-0.0026805477	-0.09994
C	-2.4030016481	 3.9080351654	 0.05718068	 0.261538
C	-3.4752586882	 4.4540816882	 0.0747388123	-0.368203
H	 0.0815685417	 5.0160400666	 0.0293205365	 0.137678
H	 2.153334612	 1.4160622845	-0.0184340019	 0.150258
H	-4.4235394345	 4.9337459765	 0.0902349493	 0.218967
