17
gdb 43341	2.99254	1.69724	1.22848	3.5629	78.84	-0.2271	-0.0448	0.1823	1004.1653	0.1386	-384.739829	-384.732901	-384.731957	-384.771381	27.387	
O	 0.0764973142	 0.0754453408	-0.7743262322	-0.337429
C	 0.0024376794	 1.1721852848	-0.2728343624	 0.377225
C	-1.221433494	 1.8919920569	 0.1508792602	-0.179258
C	-0.9120226515	 3.1092989502	 0.6113471984	-0.054568
C	 0.5674946248	 3.4133373111	 0.5877162774	-0.077316
C	 1.1794547798	 3.6709127802	 2.0005244149	-0.276871
C	 1.9492426363	 2.4054936865	 2.2867659364	-0.056039
C	 1.9807009717	 1.5734228665	 1.2477556398	-0.066927
C	 1.1980347589	 2.091627382	 0.0657992809	-0.17845
H	-2.2085170414	 1.4543594405	 0.0724655334	 0.115566
H	-1.6287336636	 3.834699739	 0.984690347	 0.114545
H	 0.7610029839	 4.2633602336	-0.0746009569	 0.091802
H	 1.838284234	 4.5484742614	 1.9995166978	 0.111809
H	 0.4081395662	 3.8694121123	 2.7554629312	 0.107408
H	 2.4265898991	 2.223298437	 3.2434582078	 0.097665
H	 2.4739772565	 0.6090323948	 1.2187017633	 0.111099
H	 1.8208331258	 2.2017265125	-0.8288883971	 0.099738
