20
gdb 98525	3.74246	1.03012	0.93028	2.2453	79.53	-0.2219	-0.0236	0.1983	1337.7439	0.170424	-403.086868	-403.077885	-403.076941	-403.122918	32.696	
C	-0.0420406229	 1.524218084	 0.0798920005	-0.379434
C	 0.031371583	 0.0048914558	-0.0473818833	-0.294842
C	 0.7461681923	-0.4666761309	-1.3045906094	 0.217274
O	 1.1958687906	 0.3005688433	-2.1277329466	-0.303791
C	 0.8784162746	-1.9573149683	-1.4953953418	 0.254562
C	-0.2160151185	-3.0573531058	-1.5785823375	-0.209083
N	 1.0725480968	-3.8734683778	-1.7750001575	-0.147048
C	 1.5123535014	-2.7045559645	-2.6842707077	-0.206095
C	 1.6249023528	-3.0098600081	-0.6288445172	-0.207522
H	 0.9592798043	 1.9615946157	 0.1049256476	 0.132229
H	-0.5640447247	 1.961027426	-0.7751187238	 0.133076
H	-0.5694473758	 1.8121305447	 0.9933988419	 0.110545
H	 0.5398527073	-0.4458751219	 0.8166001458	 0.123833
H	-0.9717416808	-0.4449864856	-0.0473302075	 0.125093
H	-0.7628133491	-3.3174860965	-0.6682248292	 0.104163
H	-0.8707389867	-3.0533858734	-2.4539800221	 0.110964
H	 0.9903968181	-2.6773958903	-3.6433203707	 0.109768
H	 2.5945280737	-2.6363320681	-2.8144298732	 0.110496
H	 2.716536026	-2.9600322494	-0.6027740444	 0.111641
H	 1.2099262277	-3.265709339	 0.349811856	 0.104171
