15
gdb 29724	2.40498	1.66065	0.99108	1.9823	64.1	-0.1744	0.0565	0.2309	1114.0214	0.111719	-491.112689	-491.103379	-491.102435	-491.147571	32.901	
C	-0.0699876088	 1.4711480044	 0.0083809869	-0.342399
N	 0.0404041623	 0.0279068599	 0.0225905075	-0.103646
C	 0.1450062221	-0.8068031936	-1.0316300087	 0.431499
O	 0.1765172699	-0.3032720085	-2.2805159325	-0.427913
N	 0.1996745058	-2.0745260697	-0.701234505	-0.458083
C	 0.1092117773	-2.0770476285	 0.6738595307	 0.246662
O	 0.1450198914	-3.2293854926	 1.3874323329	-0.445556
C	 0.0144215865	-0.8085959922	 1.1609384275	 0.17594
O	-0.1440578115	-0.2770724718	 2.4038888475	-0.434542
H	 0.8191720485	 1.9288900244	-0.435429476	 0.141516
H	-0.9487028055	 1.7915162954	-0.5588998026	 0.145952
H	-0.1708931987	 1.8056316226	 1.0414172267	 0.154112
H	 0.2354669395	-1.0607753146	-2.8757099825	 0.312004
H	 0.2086976134	-3.9420220433	 0.7413702412	 0.298337
H	 0.6766545981	-0.3743169818	 2.9006400965	 0.306117
