14
gdb 18848	3.72256	2.48115	2.07201	2.996	61.47	-0.2402	0.0022	0.2424	688.777	0.109499	-378.666844	-378.661129	-378.660185	-378.696558	22.671	
N	-0.0912382588	 1.2570873664	 0.0196133143	-0.525719
C	 0.0239113471	 0.0073421709	 0.0441665967	 0.383265
C	 1.1191934038	-1.0745863618	 0.0195432171	-0.040254
O	 1.5182781987	-1.4054424374	 1.3403382798	-0.255553
C	 0.3119067492	-1.7469667117	 2.0366634422	-0.10501
C	-0.7091112198	-2.0545745259	 0.9483046342	-0.058547
C	-0.038701206	-2.0283240823	-0.3508061207	-0.051243
N	-1.0714264314	-0.9457482013	-0.012496243	-0.167769
H	 0.8283946409	 1.7015813325	-0.0047259373	 0.229862
H	 1.9979890994	-0.955288527	-0.6121760338	 0.103559
H	 0.5054071657	-2.6220882616	 2.6653008639	 0.121872
H	-0.0116609031	-0.9145015635	 2.6749673509	 0.124834
H	-1.5450783647	-2.7116271559	 1.1551731973	 0.121632
H	-0.1570563208	-2.6918491213	-1.1956171615	 0.119072
