21
gdb 104588	2.25318	1.21083	1.01439	3.2655	79.06	-0.241	0.0572	0.2982	1309.8763	0.182081	-420.441597	-420.431547	-420.430603	-420.4768	37.621	
C	 1.0444284587	 0.0304208437	-1.181515061	-0.388166
C	 0.0144472815	-0.1469774236	-0.0607344912	-0.237083
C	 0.6107864422	-0.6776366724	 1.2353799803	 0.379842
C	-0.2628118017	-1.458789791	 2.1776819838	-0.277424
C	 0.819887022	-2.1654725979	 1.3984822957	-0.32405
N	 1.6196016371	 0.1466475732	 1.8556416362	-0.394611
C	 1.2851147396	 1.3593142264	 2.4295057507	 0.440075
N	 2.3918202223	 2.1228235963	 2.7966989261	-0.568421
O	 0.142102297	 1.741983889	 2.5871929908	-0.386924
H	 1.5354373334	-0.9179286226	-1.4277392543	 0.110222
H	 0.5710246215	 0.4084226052	-2.0925404498	 0.115746
H	 1.821966975	 0.7476222905	-0.8973590612	 0.112217
H	-0.4757405168	 0.8077603739	 0.1573762044	 0.129746
H	-0.7707472154	-0.8378339557	-0.3895207817	 0.090022
H	-0.1075225156	-1.3068369062	 3.2383379302	 0.12129
H	-1.2961719202	-1.6153423669	 1.8899869852	 0.115872
H	 0.5310404286	-2.805748381	 0.5719635842	 0.112617
H	 1.6970984664	-2.4982634722	 1.9422066405	 0.10737
H	 2.5531355526	 0.0667700382	 1.4806378503	 0.237854
H	 3.2169406988	 1.6255820154	 3.0986806446	 0.245202
H	 2.137080043	 2.8873850978	 3.4041073861	 0.258602
