16
gdb 17865	4.3158	1.69645	1.48606	0.5565	65.13	-0.2279	0.0624	0.2903	866.8255	0.12933	-383.628618	-383.621465	-383.62052	-383.659912	27.441	
O	 0.2084802861	 1.382246069	-0.0905754284	-0.426754
C	 0.0814602594	-0.0101187714	-0.0104344846	 0.038826
C	-0.4150620293	-0.7195174367	 1.243070746	-0.429372
C	-1.234547167	-0.7005055573	-0.0097191945	 0.397874
C	-2.6838757448	-0.2612103532	-0.2775886189	-0.045304
C	-2.5093783567	-0.675873084	-1.7597267012	-0.216944
C	-1.9269283617	-1.7853995793	-0.847397788	-0.051424
O	-3.1228064674	-1.6467783438	 0.024671841	-0.308138
H	-0.4946657765	 1.7851864797	 0.4287885694	 0.28448
H	 0.9045937456	-0.4723727874	-0.5473054567	 0.111838
H	 0.075205023	-1.6373413883	 1.5533793242	 0.121511
H	-0.7507613924	-0.0986918988	 2.0703262078	 0.114298
H	-3.2617883492	 0.5560348009	 0.155904729	 0.094283
H	-3.4348375107	-0.9441797023	-2.270473476	 0.107318
H	-1.8169183632	-0.0979421427	-2.3759254548	 0.109116
H	-1.5945564453	-2.7935604744	-1.0948964845	 0.098391
