22
gdb 100088	2.34855	1.18213	0.98349	2.3012	78.82	-0.2589	0.0579	0.3168	1340.1522	0.191509	-441.548881	-441.537975	-441.53703	-441.584382	40.464	
C	-0.0475649222	 1.572910005	-0.1743184734	-0.394777
C	-0.0862831729	 0.0469723213	-0.0541187467	-0.180931
C	-1.4840991548	-0.5779179069	 0.1209829743	 0.37652
C	-1.3629330437	-2.1048035838	 0.17290125	-0.426318
C	-2.2099405432	-0.0298046076	 1.3546127077	-0.426894
O	-2.1815667259	-0.1774589324	-1.1040518011	-0.311367
C	-3.464904293	-0.5381355155	-1.3237315956	 0.491907
N	-3.8947038796	 0.0184472198	-2.50052063	-0.551197
O	-4.1602959725	-1.2178043861	-0.6017328713	-0.407041
H	 0.9716885891	 1.9108759361	-0.3850682298	 0.110602
H	-0.69298321	 1.9163454099	-0.9868725362	 0.124841
H	-0.3716963052	 2.0660183199	 0.7467367549	 0.117867
H	 0.3636381818	-0.3979833727	-0.9494724222	 0.09751
H	 0.5268316352	-0.2764760866	 0.7953271524	 0.096482
H	-0.758101209	-2.397011999	 1.0371422771	 0.111051
H	-2.3448490642	-2.5700907122	 0.2571062599	 0.152008
H	-0.8684396519	-2.4792676246	-0.7289393639	 0.11086
H	-2.3847888215	 1.0449907959	 1.2616750796	 0.119431
H	-3.1705630686	-0.5261735913	 1.4882076279	 0.153356
H	-1.5950099401	-0.1991582082	 2.244530137	 0.109646
H	-3.2076951666	 0.3643572866	-3.1485289102	 0.260861
H	-4.747909321	-0.3583997878	-2.8762946606	 0.265583
