23
gdb 60225	3.88125	0.8632	0.73857	1.4017	86.98	-0.2319	0.032	0.2639	1587.6961	0.205458	-388.307651	-388.297913	-388.296968	-388.342781	36.766	
C	 0.0009926862	 1.5784459459	-0.076161187	-0.400325
C	 0.0275780715	 0.0493689124	-0.0282757032	 0.132124
O	 0.8737520505	-0.4095659919	 1.0263248945	-0.420951
C	-1.3826631088	-0.5520827932	 0.0469455509	-0.221274
C	-1.4474393217	-2.0818485767	-0.0165366076	 0.050577
C	-0.9329597004	-2.8497159761	 1.233495936	-0.249639
C	-1.8037154566	-4.0838568255	 1.2630498753	-0.068306
C	-2.8608835551	-3.967889109	 0.4614879187	-0.06443
C	-2.8828551953	-2.6336189882	-0.2450688031	-0.276229
H	 1.0200408934	 1.973255219	-0.108343672	 0.122756
H	-0.5419301818	 1.9418894522	-0.9546408128	 0.114441
H	-0.4954317818	 1.9860959585	 0.8137405658	 0.10482
H	 0.5150105711	-0.3241558662	-0.938290046	 0.086742
H	 0.4967876935	-0.0986911707	 1.8570745362	 0.274521
H	-1.8756111749	-0.1977948126	 0.965951504	 0.08062
H	-1.9669795453	-0.1365399572	-0.7853571971	 0.093851
H	-0.8385096068	-2.4117491774	-0.8685859314	 0.074302
H	 0.1378113961	-3.0624348984	 1.1791715048	 0.114797
H	-1.0757466281	-2.2609530923	 2.1525947234	 0.083915
H	-1.5924289727	-4.9348202624	 1.9018812866	 0.086556
H	-3.6459742861	-4.7069525965	 0.3439913682	 0.086652
H	-3.641682263	-1.9725273958	 0.2023527008	 0.097057
H	-3.133777654	-2.7068781881	-1.3099002447	 0.097424
