17
gdb 31341	4.05263	1.24707	0.9712	2.8593	77.79	-0.1873	0.0396	0.2268	1199.0254	0.137844	-417.997392	-417.989436	-417.988491	-418.030487	28.936	
C	-0.026295928	 1.4105726091	-0.0785194052	-0.233858
O	 0.0108199358	-0.0076544442	 0.0229521403	-0.274245
C	-1.1887304377	-0.6240331291	 0.0380164979	 0.223826
C	-1.4331918853	-1.9763528245	 0.1276131958	 0.214272
C	-1.2119159584	-3.4766898497	 0.2368822372	-0.384895
C	-2.7855165324	-3.5761160467	 0.206213225	-0.168636
N	-2.7981659477	-2.0979014059	 0.1039572919	-0.000482
C	-3.3528001075	-0.8701454816	 0.0041889215	-0.044218
N	-2.3835229274	 0.0411821809	-0.0370961442	-0.361141
H	 1.0155478034	 1.7364197176	-0.0768143949	 0.119681
H	-0.5183155609	 1.7310298259	-1.0029654905	 0.127753
H	-0.5604941508	 1.8565724189	 0.7671020578	 0.127792
H	-0.7139102423	-3.9557069724	-0.610019551	 0.127391
H	-0.7561735793	-3.8328097847	 1.1643496075	 0.12737
H	-3.2119684367	-4.0752344411	-0.6668630082	 0.13379
H	-3.2547025691	-3.9521714101	 1.1181809147	 0.133746
H	-4.4107396357	-0.6672667425	-0.0349628457	 0.131855
