18
gdb 53901	2.14815	1.40756	1.06318	3.1202	77.87	-0.2438	-0.022	0.2218	1206.1459	0.144734	-401.898749	-401.88898	-401.888036	-401.934231	34.863	
C	 0.040663015	 1.4152755222	 0.0958775539	-0.485796
C	-0.0346463281	-0.0976670116	 0.0932011842	 0.405388
O	-0.253392698	-0.7465865584	 1.0832620214	-0.286022
C	 0.1553229781	-0.7762654149	-1.2924684224	-0.343869
C	 0.7991777655	-2.0751515448	-1.1572224995	 0.330022
C	 1.3254473053	-3.1496362384	-1.0450562371	-0.431216
C	-1.2333678469	-0.8535880513	-1.9525864654	 0.024698
C	-1.6083521569	-1.9623848882	-2.8607536983	-0.25517
N	-2.211056746	-1.8512452297	-1.5189443466	-0.309409
H	 1.0736774871	 1.7269181577	-0.1007974266	 0.148292
H	-0.5773024848	 1.8435070827	-0.700395992	 0.14262
H	-0.2761951052	 1.8021357334	 1.0647146599	 0.149774
H	 0.7788978387	-0.1227366888	-1.9173135223	 0.115047
H	 1.8026652993	-4.0922717902	-0.9352363836	 0.203955
H	-1.6631291034	 0.129836167	-2.1348060795	 0.098727
H	-2.2885219735	-1.7729718898	-3.686267701	 0.11818
H	-0.8726379977	-2.7416362073	-3.0335952172	 0.128715
H	-1.7598815586	-2.5098920396	-0.8858557281	 0.246065
