19
gdb 108524	2.69423	1.49639	1.21584	1.9505	70.17	-0.2539	0.0721	0.326	1077.4974	0.160244	-460.146294	-460.138182	-460.137238	-460.179166	30.969	
O	 0.0291557127	 1.4267005856	 0.1385992728	-0.421146
C	 0.0704685526	 0.0164814496	 0.0204951701	-0.134734
C	-1.3257321797	-0.5647814805	-0.0301667157	 0.343102
C	-2.1729525253	-0.5738570696	 1.2638006371	-0.125164
O	-2.4216114813	-1.9941945039	 1.1335972412	-0.300914
C	-1.5897509236	-2.0931094721	-0.0440257225	 0.055023
C	-2.3814039973	-2.3366929741	-1.3251683188	-0.243635
C	-2.9724393018	-0.9473711174	-1.6107722331	-0.095962
O	-1.9786818916	-0.0189764879	-1.1683074097	-0.31711
H	-0.5314619535	 1.7393440119	-0.5812450323	 0.294884
H	 0.622825822	-0.3006551925	-0.8786071629	 0.089616
H	 0.6056125031	-0.3606116968	 0.8975831654	 0.110923
H	-1.6221987977	-0.3358900253	 2.1810087192	 0.10853
H	-3.0941469996	 0.0179718831	 1.2248563449	 0.107794
H	-0.7494055285	-2.7787042203	 0.1052583767	 0.077147
H	-1.6998997799	-2.6403831183	-2.1269923842	 0.109152
H	-3.1411883591	-3.1108720189	-1.1956199576	 0.119395
H	-3.163122254	-0.7504584829	-2.6681339386	 0.113859
H	-3.9087957575	-0.8029245598	-1.0542811218	 0.109239
