14
gdb 64550	4.37833	1.10754	1.07503	2.8228	67.15	-0.2618	-0.0616	0.2003	1106.6313	0.098971	-473.787375	-473.779626	-473.778681	-473.81983	28.944	
O	-0.1442837629	 1.3814703185	-0.032714403	-0.456651
C	-0.0943980454	 0.0117285757	 0.0059517103	 0.342206
C	 1.0306868277	-0.5760296932	-0.7693716484	 0.101952
O	 1.8000744378	 0.1306006931	-1.3780224715	-0.276971
C	-0.5119056102	-0.7647748279	 1.2295456054	 0.005974
O	-1.5342553591	-0.0358122641	 1.9322498337	-0.262029
C	-2.3911116169	-0.1709812367	 0.8333950016	 0.474131
N	-3.5936084132	 0.1339184034	 0.6936248233	-0.54477
C	-1.3713631583	-0.8645965066	-0.0149239064	-0.304847
H	 0.5753311243	 1.6467239898	-0.6284854814	 0.304148
H	 1.1231806085	-1.6799441322	-0.7593669376	 0.105194
H	 0.0664276828	-1.4847905633	 1.7941507744	 0.135861
H	-3.9691574405	 0.5790087131	 1.5323560068	 0.241141
H	-1.5510581648	-1.6540664998	-0.7306668171	 0.13466
