19
gdb 63127	2.27324	1.54851	1.14926	3.0073	77.91	-0.2435	-0.0271	0.2165	1131.4345	0.15718	-422.998398	-422.989422	-422.988477	-423.031673	33.747	
C	 0.0201989609	 1.5531958473	-0.0548925533	-0.465346
C	 0.0211395192	 0.0376264401	 0.0045971766	 0.212944
C	-1.1939464913	-0.618030389	-0.6314403253	-0.464214
C	 1.2838546311	-0.7365810699	-0.1357706777	 0.029506
O	 2.4282106595	-0.0618301374	 0.3493768861	-0.277773
C	 1.880312585	-0.037087864	 1.7007714113	-0.155916
C	 0.5787516242	-0.6892622843	 1.2484727199	 0.140796
C	-0.0925309205	-1.7319806564	 2.0275666543	 0.049463
O	 0.2516570284	-2.0485900598	 3.1458932694	-0.278641
H	 0.9873014968	 1.9690035855	 0.2314416594	 0.142599
H	-0.1902722782	 1.8832527275	-1.0780741012	 0.122235
H	-0.7523483165	 1.9731345272	 0.5976407301	 0.122482
H	-1.3078977935	-0.2610609167	-1.6602179158	 0.127896
H	-1.1105152683	-1.7084271342	-0.6678735329	 0.12318
H	-2.1119651879	-0.3707239367	-0.0881158667	 0.130713
H	 1.4331848394	-1.5680865949	-0.8180438176	 0.115801
H	 2.455381661	-0.6905772661	 2.3613837592	 0.138077
H	 1.8358258518	 0.9749320032	 2.114477445	 0.114844
H	-0.9540117011	-2.2306725313	 1.5361854793	 0.071353
