25
gdb 118218	2.33714	0.72702	0.64076	1.676	86.09	-0.2599	0.0726	0.3325	1894.6954	0.22593	-426.62833	-426.616363	-426.615419	-426.666606	42.813	
C	-1.7591898229	 1.6697045282	-1.2624041264	-0.401365
C	-1.7898686706	 0.1446138135	-1.3744409665	 0.126743
O	-0.8914118324	-0.3141971847	-2.3854206779	-0.426546
C	-1.512197412	-0.5378869451	-0.0274967071	-0.199313
C	-1.5768112603	-2.077784208	-0.0540125441	 0.030437
C	-0.8737514146	-2.660213879	 1.1818113814	-0.404837
C	-3.0300441188	-2.5707478588	-0.1752886433	-0.168119
C	-3.1751448645	-4.0624003857	-0.4548505657	-0.082638
O	-4.558297317	-4.3280911963	-0.6494382044	-0.422842
H	-1.9302840786	 2.12605623	-2.2410907326	 0.122622
H	-2.5253895375	 2.0321811412	-0.5693969516	 0.116041
H	-0.7854318101	 2.0127767956	-0.8896561211	 0.103701
H	-2.7770881929	-0.1579419901	-1.7420474722	 0.094305
H	-0.0052866849	-0.0279070304	-2.1358010044	 0.273843
H	-0.5097794085	-0.2262492685	 0.303109347	 0.073679
H	-2.2119056735	-0.1494412973	 0.7252626067	 0.09114
H	-1.0285961676	-2.4017271811	-0.9483673736	 0.08432
H	 0.1606142244	-2.3060275408	 1.2478174358	 0.106396
H	-1.3861630486	-2.3594460898	 2.1039798319	 0.111442
H	-0.8441565861	-3.7536404597	 1.1620572977	 0.112785
H	-3.582161513	-2.3297474001	 0.7430738606	 0.09647
H	-3.5411955079	-2.0463839299	-0.990174529	 0.107739
H	-2.5895937551	-4.3274289503	-1.3508169555	 0.086284
H	-2.7783289523	-4.6562249732	 0.3824734923	 0.084096
H	-4.6623688249	-5.27041093	-0.8096254082	 0.283616
