11
gdb 24967	5.39006	1.39334	1.10714	4.1656	57.14	-0.227	-0.0076	0.2194	963.0535	0.067141	-492.530952	-492.524815	-492.523871	-492.561896	23.039	
O	-0.0619962601	 0.0257000174	 0.0045109986	-0.331894
C	-0.024605273	 1.2070634398	 0.0099872196	 0.466818
O	-1.1650922324	 2.0331821569	 0.0299104107	-0.254317
C	-0.6489240211	 3.2857184541	 0.0288680777	 0.372908
C	 0.6840008318	 3.2969275417	 0.0103970889	 0.224765
O	 1.1170120317	 1.9810149576	-0.0021225385	-0.251005
C	 1.0854816237	 4.6639931056	 0.0120838093	-0.336437
C	-0.101112799	 5.3478612708	 0.0322645065	-0.00484
O	-1.2022710743	 4.4929689616	 0.0429817623	-0.19068
H	 2.070988972	 5.0981248783	 0.000631029	 0.146594
H	-0.3477724393	 6.3943368561	 0.0410710659	 0.158089
