19
gdb 66646	4.03234	1.53079	1.41553	1.8199	77.67	-0.2295	0.0991	0.3286	979.4213	0.161585	-385.849439	-385.842583	-385.841639	-385.880323	28.353	
C	 0.0376842868	 1.5449276648	-0.0041782975	-0.526877
C	-0.0068333066	 0.053544041	 0.008145219	 0.339105
C	 0.4619786553	-0.9981951506	-0.9679893459	-0.129937
C	 0.9809292799	-0.9930120186	 0.4824070195	-0.161398
C	-0.0977661047	-1.7765428106	 1.2396265149	 0.138845
O	-0.209515795	-3.1542420266	 0.9358615066	-0.284297
C	-0.6583955254	-3.2510149026	-0.4283522169	-0.086484
C	-0.8450740167	-1.8037061761	-0.8910473803	-0.062779
C	-1.1310056421	-0.9782453771	 0.4014879886	-0.163371
H	 1.0161118867	 1.9004462038	-0.3455519464	 0.12277
H	-0.7200500822	 1.9666733805	-0.675056829	 0.120235
H	-0.134465988	 1.9619321742	 0.9950796007	 0.121103
H	 1.1398554627	-0.8897577731	-1.805602396	 0.082238
H	 2.0333172268	-0.8794065873	 0.7097380557	 0.082094
H	-0.1082166763	-1.6476478102	 2.3223932867	 0.077529
H	 0.0903260743	-3.783688669	-1.0290241768	 0.098567
H	-1.5926367367	-3.8284653964	-0.4533404682	 0.094391
H	-1.5294235442	-1.6601777333	-1.727806305	 0.070024
H	-2.1374485046	-0.7699678131	 0.7568988204	 0.068243
