21
gdb 117333	3.27984	0.72485	0.65035	2.1868	76.06	-0.2408	-0.0102	0.2305	1778.2856	0.178824	-461.377344	-461.36618	-461.365236	-461.414924	39.051	
C	 0.213639564	 1.340015542	 0.4057401147	-0.411332
C	-0.0356043461	-0.1626829217	 0.3004880778	 0.149454
O	-0.1713550358	-0.7601627081	 1.5883660904	-0.431881
C	-1.2476232438	-0.4928125164	-0.5977914562	-0.301285
C	-1.3619954056	-1.999762426	-0.8090037392	 0.38631
O	-0.6484966387	-2.5641692755	-1.6097586006	-0.320674
C	-2.3605095532	-2.7408387235	 0.0535175937	-0.289247
C	-2.3688105692	-4.2433629949	-0.1764216125	-0.076497
O	-3.3639563933	-4.7941962667	 0.675602102	-0.426546
H	 1.0663203387	 1.5339778921	 1.0623088319	 0.129551
H	 0.4224223105	 1.7773191133	-0.5753169203	 0.124567
H	-0.6636494053	 1.8537088609	 0.8196539758	 0.108678
H	 0.8431150232	-0.6486505085	-0.1378126501	 0.114769
H	-0.8251045794	-0.2516657718	 2.0816281125	 0.279024
H	-2.1579636151	-0.0801374292	-0.1459369619	 0.090247
H	-1.1024497265	-0.0272672932	-1.5776076442	 0.122415
H	-2.123059851	-2.5111149333	 1.1002689879	 0.138734
H	-3.3632237542	-2.32765844	-0.1222374684	 0.124284
H	-2.5778863458	-4.4534908604	-1.2351278897	 0.099399
H	-1.3727442345	-4.6537442857	 0.0414780305	 0.103698
H	-3.3675320291	-5.7472741135	 0.5490906557	 0.286333
