17
gdb 53007	4.54398	0.91495	0.84152	1.9293	84.59	-0.2362	-0.0052	0.231	1418.4768	0.134754	-384.655603	-384.647006	-384.646062	-384.691224	31.284	
C	 0.0150064835	 1.4961351139	-0.0887857043	-0.509274
C	-0.0116474594	 0.0438494741	-0.0107019982	 0.251348
C	-0.0448423777	-1.1590323113	 0.0447135852	-0.133228
C	-0.0376794066	-2.5877928005	 0.1374471124	 0.252257
O	-0.3907931007	-3.3353666047	-1.0669298262	-0.297532
C	-1.2346083966	-3.4660558829	 0.0714474651	-0.038664
C	-0.9657763442	-4.7013062739	 0.9216388063	-0.297124
C	 0.4610255805	-4.4917665202	 1.3881701445	-0.076501
C	 0.961332827	-3.3241084543	 0.9806957889	-0.165573
H	 1.0425864046	 1.875693995	-0.1014503614	 0.151578
H	-0.4807871893	 1.848812099	-0.999761652	 0.155114
H	-0.4981295054	 1.9506147247	 0.76600334	 0.150778
H	-2.2403012629	-3.070513863	-0.0423443239	 0.102625
H	-1.6676082929	-4.765410939	 1.7628026076	 0.115747
H	-1.0800041888	-5.622815932	 0.3377628639	 0.128293
H	 1.0016706505	-5.2400946761	 1.9563008355	 0.104277
H	 1.9507313883	-2.9357523388	 1.1830327266	 0.10588
