19
gdb 80985	2.56475	1.78487	1.34322	2.0414	75.04	-0.2361	0.0155	0.2516	998.7194	0.16002	-423.019554	-423.011605	-423.010661	-423.051309	32.354	
O	-0.0377352881	 1.382657199	-0.0232728484	-0.46314
C	 0.0108132571	-0.0240883425	 0.00038085	 0.142029
C	-1.4134603829	-0.6372040363	-0.119391921	-0.05
C	-1.2753682936	-0.4546267568	-1.6636364759	-0.294694
C	 0.2535106354	-0.6251794062	-1.4152941772	 0.323789
O	 1.1953021177	 0.0906136817	-2.1810073525	-0.508113
C	 0.5534792554	-2.0997959695	-1.2514369924	-0.117869
C	-0.2341975627	-2.8154571703	-0.4484502341	-0.072541
C	-1.3827008816	-2.1284205859	 0.2587661905	-0.269763
H	 0.6565269205	 1.6620091316	-0.6345074831	 0.287677
H	 0.6579616674	-0.3945591945	 0.8064665958	 0.06127
H	-2.2122398408	-0.089885816	 0.3830467619	 0.077297
H	-1.7619944044	-1.1779625284	-2.3220208278	 0.089298
H	-1.5180549828	 0.5685434334	-1.9534917984	 0.108947
H	 0.9390196058	 0.045462182	-3.1073783908	 0.285424
H	 1.4103123797	-2.5104124111	-1.7762107236	 0.091265
H	-0.0747632838	-3.8769517113	-0.2829843119	 0.09159
H	-1.2767945531	-2.2409584002	 1.3469117581	 0.110456
H	-2.3363031453	-2.6099176786	 0.0004126309	 0.107079
