18
gdb 31730	4.52275	0.95569	0.79956	1.3553	76.36	-0.1676	0.0654	0.233	1429.66	0.148302	-435.293242	-435.283854	-435.28291	-435.327576	33.634	
C	 0.0909920527	 1.3789740752	-0.1053292674	-0.321657
N	-0.1443422945	-0.0349370964	 0.1034095979	-0.370239
C	 0.5799275756	-0.666794294	 1.104103163	 0.321987
C	 1.2459012723	-0.1276153631	 2.1738321155	-0.20695
N	 1.7330474587	-1.2389111987	 2.8812122077	-0.342552
C	 1.347860363	-2.3339459958	 2.1909876705	 0.4926
O	 1.6956796419	-3.5459176515	 2.6420033936	-0.27215
C	 1.2304717651	-4.6366138078	 1.8470252969	-0.233574
N	 0.653390723	-2.0501945788	 1.1170368666	-0.437954
H	 1.1517777296	 1.6304518599	-0.27343589	 0.104572
H	-0.4916279996	 1.7204763675	-0.9640404717	 0.120581
H	-0.2491908731	 1.9439592223	 0.7706008972	 0.126715
H	-0.1623312272	-0.5878609847	-0.7417307821	 0.23616
H	 1.4131686732	 0.8792398656	 2.5100077707	 0.115406
H	 2.2752517953	-1.2361770231	 3.7267152485	 0.262755
H	 0.1379241891	-4.6380861926	 1.7915152038	 0.139596
H	 1.6315557371	-4.5753181655	 0.8310416819	 0.137074
H	 1.5882272777	-5.5393026486	 2.3436097274	 0.127628
