18
gdb 38070	3.55986	1.39958	1.23456	2.4312	76.44	-0.2384	0.0015	0.2399	1042.5108	0.14962	-401.898875	-401.891638	-401.890694	-401.930875	28.455	
C	 0.0648879623	 1.5311500031	-0.1143043652	-0.109821
O	 1.4679026891	 1.5580022831	 0.2222938729	-0.276231
C	 1.4699787967	 0.1459676289	 0.4941357314	-0.130328
C	 0.0189354947	-0.0175615174	-0.031179034	 0.30403
C	-1.0126563089	-0.6770855659	 0.8488465625	-0.174298
C	-1.6648988438	-1.6633274703	 0.2276506025	-0.05994
C	-1.2006345559	-1.7850806005	-1.1856360538	-0.096724
N	-1.4701941813	-0.5446091801	-1.9769001767	-0.338041
C	-0.1451533978	-0.7535679711	-1.3565972379	-0.142053
H	-0.5457842879	 2.0484526928	 0.6370517393	 0.097382
H	-0.1431078002	 1.9555644252	-1.1022933138	 0.112107
H	 2.2475044049	-0.3872372894	-0.0684283282	 0.098709
H	 1.5927190158	-0.0705677206	 1.5639864907	 0.094663
H	-1.2008001659	-0.333952033	 1.8606826733	 0.102256
H	-2.4540851699	-2.2707795163	 0.6535681223	 0.104358
H	-1.1885008898	-2.7382127498	-1.7027336452	 0.092626
H	-1.3962472821	-0.771249572	-2.9680422927	 0.228889
H	 0.71863839	-0.9000669766	-1.9972413173	 0.092417
