20
gdb 117368	4.54117	0.72619	0.71448	2.3382	77.84	-0.2467	0.0628	0.3095	1701.1043	0.169516	-440.315764	-440.305613	-440.304668	-440.35391	35.447	
C	-0.4130376621	 1.1826758841	-0.6600237176	-0.370341
C	 0.2932316418	 0.0571886038	 0.1001985072	-0.143282
N	 1.1986034279	-0.7177508606	-0.7292153223	-0.362498
C	 0.8621706581	-1.9362359921	-1.2297167747	 0.518516
O	-0.1539339421	-2.5487316959	-0.9896451524	-0.413334
O	 1.8689254693	-2.3882657355	-2.0344135831	-0.284001
C	 1.6331885377	-3.6388579901	-2.6474577282	 0.164735
C	 1.2546922281	-3.653796693	-4.0976509364	-0.279528
C	 2.6521159903	-4.051233445	-3.656746558	-0.301058
H	 0.3082286554	 1.8876402365	-1.0876480438	 0.110988
H	-1.0176055297	 0.7757009727	-1.4756419538	 0.133944
H	-1.0719943006	 1.7427520938	 0.0112839665	 0.118686
H	 0.8541410161	 0.466653373	 0.94875725	 0.105944
H	-0.4376462018	-0.6501275964	 0.4978185734	 0.148237
H	 2.0488629254	-0.3000558209	-1.0700773318	 0.248932
H	 1.1940359087	-4.3674344311	-1.9777994204	 0.120804
H	 0.569573597	-4.4202628424	-4.4416417785	 0.120937
H	 1.1479360726	-2.6923011498	-4.5866305759	 0.12024
H	 3.452461192	-3.3487976686	-3.8596235928	 0.122926
H	 2.9429003261	-5.0947518924	-3.6970579673	 0.119152
