13
gdb 21792	6.0393	1.25132	1.11473	3.1823	60.63	-0.2604	-0.0478	0.2125	997.7768	0.096247	-394.785184	-394.778097	-394.777152	-394.818594	24.112	
O	-0.5467821188	 1.092542038	 0.9377013148	-0.226782
C	 0.0700176583	 1.0475571604	-0.0927284839	 0.15482
C	 1.4518274448	 1.6679938822	-0.285825984	-0.387363
C	 1.3963703963	 2.7759030094	-1.2883486068	 0.316271
C	 1.8802282904	 2.9233687315	-2.5683373239	-0.149212
N	 1.5140043864	 4.1444733562	-3.0481584151	-0.179406
N	 0.8226341142	 4.7684417522	-2.1395206142	-0.106575
N	 0.7429172374	 3.9483878628	-1.074379424	-0.223339
H	-0.3450518947	 0.5640867312	-1.0039782744	 0.097449
H	 1.8120739406	 2.012061389	 0.6885297541	 0.141339
H	 2.1342036266	 0.8953607941	-0.6569867882	 0.145315
H	 2.4667056307	 2.234552895	-3.1550347293	 0.128311
H	 0.241099148	 4.2506907782	-0.253188905	 0.289172
