19
gdb 90305	2.92152	1.69566	1.37326	1.4705	81.27	-0.2163	0.0192	0.2356	991.8905	0.160921	-385.848523	-385.841179	-385.840235	-385.879891	30.303	
O	 0.1069830344	 1.4267444213	 0.032120375	-0.418719
C	 0.0824934863	 0.0186099589	 0.0392062043	 0.090308
C	 0.1212655893	-0.6238353823	 1.4845932209	-0.357172
C	-1.3864184948	-0.6767908827	 1.3743224149	 0.270829
C	-2.5072375612	-0.2369540832	 1.9474453113	-0.235177
C	-3.4605126821	 0.2349665539	 0.8885783033	-0.067356
C	-3.00603535	 1.5074185875	 0.2024534236	-0.277155
C	-2.6790794154	 0.1856400052	-0.4427598971	-0.070552
C	-1.3864124341	-0.54210192	-0.1279825824	-0.047457
H	 0.9742855773	 1.7099013675	 0.3390007099	 0.285039
H	 0.8147738944	-0.3944401281	-0.6674962319	 0.067157
H	 0.6090167446	-1.6045966333	 1.4719906912	 0.105905
H	 0.5571184275	-0.012441867	 2.2797482403	 0.102998
H	-2.6697332222	-0.0561014672	 3.0042865369	 0.089729
H	-4.5219339662	 0.014671857	 0.9375247015	 0.080545
H	-3.7678901782	 2.0985672352	-0.2961028841	 0.10237
H	-2.2056536918	 2.0787991934	 0.6541017246	 0.127885
H	-3.2035680968	-0.0614496902	-1.3579894152	 0.079576
H	-1.326081211	-1.4981914658	-0.662290917	 0.071246
