19
gdb 61784	2.28498	1.02632	0.94658	3.957	78.77	-0.2701	0.007	0.277	1370.4451	0.15509	-423.022295	-423.011792	-423.010848	-423.058609	37.02	
C	-0.0459602092	 1.6441168446	 0.0286994903	-0.40184
C	-0.0389052528	 0.121583501	 0.0078315407	 0.1064
O	-1.3956194259	-0.3541565156	 0.0814541479	-0.184524
C	-1.8249801025	-0.8980236283	 1.2344411154	 0.173086
O	-2.9424141929	-1.2877639447	 1.3919027653	-0.275348
C	 0.6228983937	-0.4863847167	-1.2508522953	-0.157348
C	 0.6458370693	-2.0263147224	-1.1941773878	-0.405349
C	 0.0003004592	-0.0123566999	-2.4859551582	 0.353727
C	-0.5054015499	 0.357980194	-3.5112144659	-0.47861
H	 0.9763731522	 2.0304490851	-0.0297368964	 0.122079
H	-0.6146933848	 2.0324257198	-0.8192000788	 0.153428
H	-0.4999235438	 2.0105856679	 0.9535155911	 0.124682
H	 0.5120899719	-0.2606145552	 0.8789177837	 0.08607
H	-1.0323439551	-0.9457456181	 2.007929091	 0.074972
H	 1.6620094373	-0.1281925803	-1.2356231318	 0.111193
H	 1.1512779533	-2.3681610217	-0.2847452236	 0.111723
H	-0.3706762599	-2.4251690556	-1.2019344051	 0.151208
H	 1.1792331218	-2.4311436706	-2.0570004521	 0.13265
H	-0.9566741119	 0.6857695965	-4.4150151804	 0.201802
