18
gdb 37334	3.32822	1.84108	1.76671	2.9703	72.43	-0.2311	0.0818	0.3129	854.9365	0.151891	-401.890917	-401.88504	-401.884096	-401.920718	26.191	
C	-0.0189383095	 1.5285784441	 0.1385721059	-0.30403
C	 1.3024817907	 0.813426367	-0.0194402349	-0.038038
C	 0.002319253	 0.0252924788	-0.0105811381	-0.038039
C	 0.0310949609	-0.6412802531	-1.411752564	 0.049528
O	 1.4346678245	-0.8888469035	-1.5924079541	-0.241377
C	 1.8661595975	 0.471109712	-1.424258056	 0.04953
C	 1.0316001307	 1.1985665388	-2.4878267652	-0.065684
N	 0.6781855642	 0.3361353262	-3.6359039396	-0.331584
C	-0.2384412236	 0.4286761234	-2.4791828095	-0.065681
H	-0.2393828387	 1.9034346868	 1.134022406	 0.108526
H	-0.4042147655	 2.155249243	-0.654148941	 0.112044
H	 1.9861107701	 0.7747062212	 0.8202473102	 0.090981
H	-0.2711783077	-0.5936164005	 0.8356301769	 0.090982
H	-0.5197325751	-1.5774230779	-1.4925599794	 0.080355
H	 2.9500628349	 0.5259194258	-1.5162034211	 0.080356
H	 1.072863831	 2.2761298162	-2.5939436126	 0.096727
H	 0.3072769316	 0.9397894506	-4.3679767918	 0.228677
H	-1.2139085989	 0.8899012612	-2.5783824217	 0.096727
