20
gdb 16946	3.53891	1.95433	1.79709	0.2969	79.23	-0.2212	0.0317	0.2529	866.0691	0.180283	-311.892228	-311.885361	-311.884417	-311.922813	28.227	
C	-0.0113936058	 1.4939138086	 0.0484390557	-0.511715
C	-0.0693266483	 0.0036681888	-0.0173453769	 0.352979
C	-0.0824178976	-0.7998990709	-1.0888134741	-0.187562
C	 0.006783131	-2.237983063	-0.6021103503	-0.045825
C	 1.4589790967	-2.4297555215	-0.0461330316	-0.196715
C	 1.4707970792	-1.4972965254	 1.2047948928	-0.203738
C	 0.0221422681	-0.9024973992	 1.2089045266	-0.097112
C	-0.7874154435	-2.124741996	 0.7204699045	-0.207491
H	 0.9067836188	 1.8357978672	 0.544665769	 0.123932
H	-0.0413869247	 1.9426866622	-0.9487453145	 0.121358
H	-0.8469164581	 1.9023823019	 0.6314869816	 0.122761
H	-0.0379756622	-0.4954372167	-2.1283172958	 0.081102
H	-0.3075659868	-3.0069134449	-1.3090321541	 0.052932
H	 1.6303755309	-3.4737258469	 0.2352924921	 0.091334
H	 2.2160296392	-2.1585520666	-0.7856211009	 0.093861
H	 1.6547037261	-2.0648731698	 2.1222133198	 0.092252
H	 2.2317539193	-0.7148963764	 1.144987252	 0.093991
H	-0.2733033704	-0.4496116136	 2.1572708795	 0.050409
H	-1.8450470032	-1.8992980151	 0.5628400106	 0.091033
H	-0.6882165288	-3.0026876426	 1.3688858341	 0.082212
