18
gdb 63118	2.21304	1.68052	1.19421	5.7066	78.	-0.2621	0.0198	0.2819	1086.549	0.146761	-401.934876	-401.926117	-401.925172	-401.967747	33.482	
C	-0.0455898669	 1.5692754051	 0.050816924	-0.462725
C	 0.0618064998	 0.0610560539	 0.0472039379	 0.350919
O	-1.1050486047	-0.576541091	-0.3989279011	-0.453791
C	 1.3124342706	-0.7192774237	-0.2521217702	-0.165221
C	 2.5751995381	-0.0579228753	 0.3061455422	-0.244535
C	 1.946647302	-0.0632506174	 1.736674652	-0.30061
C	 0.6838001504	-0.7417583136	 1.1750331317	 0.158032
C	-0.0274624683	-1.7827215153	 1.840514983	 0.217841
N	-0.5691759927	-2.6240651647	 2.4225737268	-0.361448
H	 0.8430290895	 2.0592529027	 0.4526464437	 0.127933
H	-0.1900947076	 1.9353650958	-0.9727976881	 0.117101
H	-0.9111627874	 1.8756737882	 0.6448399451	 0.141925
H	-1.1901687591	-0.4178964148	-1.3456021275	 0.28936
H	 1.2797643606	-1.5196804566	-0.9816893251	 0.109693
H	 3.4485774432	-0.7092155937	 0.2444000077	 0.121019
H	 2.8382273931	 0.9141855328	-0.1202938703	 0.108308
H	 2.4852109047	-0.7187423304	 2.4217835892	 0.132917
H	 1.7910920047	 0.9012631779	 2.2264933688	 0.11328
