20
gdb 72222	3.2742	1.7023	1.37884	0.5102	77.74	-0.2134	0.0659	0.2793	997.079	0.172857	-403.120787	-403.113354	-403.11241	-403.152469	30.017	
C	 0.0485258589	 1.555223107	 0.2156092618	-0.489908
C	-0.0484160701	 0.0907575448	-0.1057197111	 0.451349
C	 0.2310522246	-0.4519315539	-1.5238032948	-0.223754
N	-0.9349469876	-1.3900277636	-1.416378118	-0.095572
C	-0.5989754986	-2.8092871948	-1.2279041548	-0.173218
C	-0.2106485814	-3.0213242106	 0.2712136531	-0.252664
C	-0.5114438613	-1.6755590379	 0.9392318893	 0.124034
O	 0.6099769987	-0.7476831564	 0.8800279194	-0.349964
C	-1.2945026911	-0.8298017281	-0.0844750207	-0.14244
H	 1.0971196717	 1.8739284817	 0.2022076094	 0.130091
H	-0.4990567699	 2.1530813081	-0.5196015669	 0.121178
H	-0.3538916663	 1.7644811226	 1.2110004421	 0.125115
H	 0.0825003713	 0.270883449	-2.3343068966	 0.099465
H	 1.2120793851	-0.9267447536	-1.635573095	 0.101233
H	-1.4758370249	-3.4180826846	-1.4768474049	 0.102936
H	 0.1962173286	-3.0940152732	-1.9224151854	 0.107726
H	-0.7976568029	-3.8258914743	 0.7253957531	 0.09929
H	 0.8461695723	-3.2659869455	 0.4063056536	 0.11723
H	-0.8888728718	-1.7561823857	 1.963439635	 0.076128
H	-2.3352480356	-0.546845061	 0.0763490813	 0.071746
