22
gdb 112981	4.68382	0.76678	0.72058	2.1441	83.94	-0.229	0.0766	0.3056	1626.4821	0.193875	-404.296769	-404.287355	-404.28641	-404.331658	35.094	
O	-0.1453193093	 1.4950049727	-0.2123864921	-0.421778
C	-0.0346142286	 0.1371907192	 0.189328508	-0.07954
C	-1.3917074466	-0.5198234499	 0.0056056151	 0.019865
C	-1.8056016485	-0.7213656197	-1.4802648585	-0.245776
C	-1.382453879	-2.2101996272	-1.3734469211	 0.083415
C	-1.3638688233	-2.0670405183	 0.1721998041	-0.271544
N	-2.3214439294	-3.1776010711	-1.9080680776	-0.062304
C	-2.1054727578	-3.5839735332	-3.2948946153	-0.223579
C	-1.7926582133	-4.5131632257	-2.1753864065	-0.224703
H	 0.7179139728	 1.9084005467	-0.1207773314	 0.285293
H	 0.7248061557	-0.3924370459	-0.4107893945	 0.079215
H	 0.2721533079	 0.0558670922	 1.2454570876	 0.082754
H	-2.1199639284	 0.0111258529	 0.6237879971	 0.07673
H	-2.8858264116	-0.6417278663	-1.6225357645	 0.106887
H	-1.2988704214	-0.0967519807	-2.2190339138	 0.101938
H	-0.3654364206	-2.3688468894	-1.7721317326	 0.046924
H	-0.5142837058	-2.5003191504	 0.7088035918	 0.089058
H	-2.2904410288	-2.4523877945	 0.6037087792	 0.11043
H	-3.0016743422	-3.7199185237	-3.8932265345	 0.115502
H	-1.2625260595	-3.1472863334	-3.8285194163	 0.108712
H	-0.740858258	-4.6987110091	-1.96206789	 0.107436
H	-2.4565335645	-5.3403493353	-1.9411784442	 0.115065
