16
gdb 14188	2.82761	2.31241	2.13858	2.4831	64.44	-0.2255	0.0716	0.2972	763.3571	0.12885	-383.652205	-383.645019	-383.644075	-383.68307	28.071	
C	 0.0058769256	 1.4453484674	-0.0985891886	-0.528072
C	-0.00416746	-0.0458774156	-0.0168789506	 0.426419
O	 0.5758822513	-0.8284241477	-1.111091694	-0.357429
C	 0.1096460768	-1.8330815815	-0.1697736752	 0.006965
C	 0.5077630914	-1.0244429616	 1.0975345565	-0.134081
C	-0.8889533604	-1.155210184	 1.741254728	-0.349267
C	-1.1891793619	-1.0373999612	 0.2280925217	 0.326777
O	-2.3951901968	-0.9505437627	-0.4254801348	-0.463926
H	 1.0299592997	 1.8187135012	-0.1928348538	 0.134413
H	-0.5693824012	 1.7809341503	-0.9665365026	 0.144277
H	-0.4415782998	 1.878793174	 0.8013690868	 0.128941
H	 0.2601692003	-2.8868136614	-0.403083874	 0.090301
H	 1.4887623677	-1.0096297024	 1.5654215498	 0.089455
H	-1.1170004247	-2.1140195378	 2.2166669635	 0.093703
H	-1.2194595273	-0.3250331065	 2.3715291534	 0.103319
H	-2.9054632606	-1.7485762706	-0.2494692261	 0.288204
