18
gdb 114177	4.55125	0.93563	0.86626	2.1785	73.91	-0.2527	-0.0386	0.2141	1330.7106	0.146727	-439.040573	-439.031865	-439.030921	-439.074308	32.109	
O	 0.7516787943	-0.7854359264	-1.0881494742	-0.418067
C	 0.1451725715	-0.0721822246	-0.0273875167	-0.074331
C	-1.3443996885	-0.3513406789	 0.0437152627	 0.052868
C	-2.265461505	 0.4343494603	 1.0128128882	-0.363576
C	-3.0593356894	 0.849675575	-0.2197524643	 0.267222
C	-2.1870847961	 1.5399531411	-1.2021455482	-0.285864
N	-2.1344974437	 0.0782307827	-1.1893768138	-0.197736
C	-4.5234482125	 0.759088127	-0.3763215736	 0.072402
O	-5.291144698	 0.6251051757	 0.5450477582	-0.257014
H	 0.2312655255	-0.6157100967	-1.881803515	 0.2961
H	 0.6214664939	-0.415625001	 0.8980351174	 0.118016
H	 0.341752988	 1.0097506351	-0.1041675718	 0.085467
H	-1.4896466204	-1.4302922037	 0.1338743125	 0.10749
H	-2.831959623	-0.2013300851	 1.6928610765	 0.139323
H	-1.8161091436	 1.2535154026	 1.5810161074	 0.112266
H	-2.6495415631	 1.9298000409	-2.104312362	 0.135319
H	-1.3596620357	 2.1354997282	-0.8241235622	 0.128663
H	-4.8700679942	 0.8117557577	-1.4326583211	 0.081453
