18
gdb 121344	2.6719	1.2831	0.99416	4.138	68.42	-0.2394	0.0579	0.2973	1209.0894	0.148759	-476.265273	-476.25633	-476.255386	-476.300185	31.452	
O	-0.0545421646	 1.4396798261	 0.0829181946	-0.416944
C	-0.0062995246	 0.0210359801	-0.0092673563	-0.079913
C	-1.4374414379	-0.5054104078	-0.0485774353	-0.16402
N	-2.1769390878	-0.1282594909	-1.2359960313	-0.131461
C	-2.7409535339	 1.1875068949	-1.4783304952	-0.188315
C	-3.3772308814	 0.9591922747	-2.8619981339	-0.09245
O	-2.6925958345	-0.1775761169	-3.4056477164	-0.246892
C	-2.0464380823	-0.8430911162	-2.4004334782	 0.489596
O	-1.4688141235	-1.8870973108	-2.559200897	-0.415317
H	 0.8414278333	 1.7792544619	 0.002313135	 0.292081
H	 0.5199989534	-0.3089181326	-0.9159196849	 0.116042
H	 0.5071482771	-0.4192011321	 0.8602909123	 0.092141
H	-1.4088226665	-1.597924132	-0.0185827987	 0.140232
H	-1.9815718881	-0.1463836799	 0.8318001425	 0.113449
H	-3.4844564899	 1.4553930285	-0.7203509079	 0.115463
H	-1.9663265422	 1.9615639841	-1.4868680821	 0.130595
H	-4.444728305	 0.7233503231	-2.7861460358	 0.119431
H	-3.2462001216	 1.8025704556	-3.5424046613	 0.126284
