22
gdb 6535	3.07057	1.57859	1.25743	1.6925	78.52	-0.252	0.0823	0.3342	1098.5945	0.196757	-350.208686	-350.198497	-350.197553	-350.243154	37.352	
C	 0.3395235005	 1.2651972445	 0.4250418224	-0.373304
C	-0.4076035914	 0.1473275184	-0.3152819295	-0.259699
C	 0.4156902546	-0.452403287	-1.4530896856	 0.349856
C	 0.4079891618	 0.4073034343	-2.7065601703	-0.46612
O	 1.7102764668	-0.9630471302	-1.0737932782	-0.334281
C	 0.7197715971	-1.9072445019	-1.5208287506	 0.339814
C	 0.2366968248	-2.8762188689	-0.4558390193	-0.455319
C	 1.0193196667	-2.6013900255	-2.8372506308	-0.457182
H	 1.2786750745	 0.8829784778	 0.8340542141	 0.13565
H	 0.5792451586	 2.105890397	-0.2337441131	 0.11581
H	-0.2647119038	 1.6543855441	 1.2498832284	 0.109283
H	-0.695325155	-0.6220114503	 0.4041535503	 0.098135
H	-1.3422813443	 0.5372468873	-0.7378307485	 0.09558
H	 1.1953594476	 0.1187002799	-3.4024139468	 0.129136
H	-0.5585964643	 0.3398191688	-3.2183302565	 0.117895
H	 0.5698989727	 1.4583786156	-2.4467607387	 0.123535
H	 0.2415666857	-2.4265247364	 0.536876199	 0.130263
H	-0.7746441229	-3.2349532953	-0.6777780969	 0.117179
H	 0.8973151874	-3.7496522479	-0.4252325768	 0.119607
H	 1.8019057107	-3.3532563234	-2.686905792	 0.124084
H	 0.1278054412	-3.1224207759	-3.2038949724	 0.117499
H	 1.358855361	-1.915115145	-3.6119854681	 0.12258
