20
gdb 37596	2.7599	2.27169	1.96923	1.5796	79.21	-0.2254	0.0896	0.3149	834.4095	0.17749	-366.007483	-366.0019	-366.000956	-366.036963	25.736	
C	-0.035231574	 1.5579505753	-0.0480238193	-0.208713
C	 1.4714630493	 1.8452983988	 0.0009483414	-0.03651
C	 1.9413855399	 0.9310851398	-1.1604370954	-0.208946
C	 1.4490406176	-0.3621261427	-0.4702672641	-0.048393
C	 2.2773546581	-0.3059645312	 0.8360987681	-0.04479
C	 2.0995445743	 1.1230648505	 1.2308710104	-0.046079
N	 1.4166856795	 0.0178321917	 1.9669472689	-0.118252
C	 0.051699104	-0.3233340617	 1.5447007232	-0.152503
C	-0.0021005751	 0.0090356153	 0.047666778	-0.049935
H	-0.6033883829	 2.0069298572	 0.7716289682	 0.092121
H	-0.461494458	 1.9180474638	-0.9897211716	 0.089332
H	 1.7531676615	 2.8976224716	-0.0597367223	 0.057602
H	 1.4547719928	 1.1578284175	-2.1157620871	 0.086686
H	 3.0254806194	 0.9344127462	-1.3067323312	 0.094187
H	 1.519199831	-1.2921090827	-1.0342605445	 0.060532
H	 3.1623372455	-0.9146562482	 0.9916453704	 0.080778
H	 2.81240584	 1.6635467636	 1.8439477649	 0.090902
H	-0.0858265259	-1.3928420783	 1.7441672906	 0.09616
H	-0.6935018734	 0.2275434248	 2.1276024607	 0.099555
H	-0.8093536635	-0.4906757011	-0.4898720993	 0.066265
