16
gdb 123457	5.26225	0.94355	0.83172	2.8538	70.36	-0.2503	0.0002	0.2505	1323.5598	0.125914	-434.041605	-434.033929	-434.032984	-434.075172	27.811	
C	 0.1164279446	 1.305988878	 0.670407474	-0.34294
C	-0.0632588189	-0.0647309216	 0.0557074884	 0.096085
C	-1.3637262344	-0.5417179269	-0.4263806616	-0.181406
O	-0.3650620193	-0.0880364662	-1.3449259819	-0.239754
C	 1.3992792464	 1.9544669426	 0.2477107654	 0.307089
C	 1.9323719854	 2.1070345417	-1.0132126939	-0.157294
N	 3.0962261572	 2.7608478468	-0.7954387776	-0.146292
N	 3.2914189142	 3.0069766175	 0.5123570365	-0.117493
N	 2.2632727045	 2.5170665033	 1.1439776233	-0.250233
H	-0.7400061233	 1.9312303176	 0.3905912541	 0.117633
H	 0.1175297675	 1.2273301467	 1.762515339	 0.130509
H	 0.6766016043	-0.8084056526	 0.3547888034	 0.102086
H	-1.574614598	-1.6094490156	-0.4567457499	 0.118145
H	-2.2379231769	 0.1012544879	-0.3320400682	 0.11639
H	 1.5909534828	 1.8078423585	-1.9891180415	 0.164733
H	 3.790232854	 3.0596530123	-1.4619408996	 0.282743
