16
gdb 11298	4.88639	1.3551	1.2236	4.0137	64.91	-0.2399	0.0248	0.2646	981.1242	0.132023	-379.928856	-379.921049	-379.920105	-379.962305	28.227	
O	-0.5289496686	 1.2929539209	 0.7529062732	-0.434051
C	 0.0311043955	 0.2118935961	 0.0245590839	 0.134691
C	 0.8192231231	-0.761378276	 0.9085265151	-0.193366
N	-0.2303289992	-1.4795935637	 1.6349048969	-0.306075
C	-1.4318909943	-1.5708912683	 0.7783872679	-0.07188
C	-1.1357382146	-0.6581558275	-0.4479910428	-0.240332
C	-1.7323538781	-2.9504635735	 0.3731856271	 0.246712
N	-1.9468771342	-4.047442451	 0.0764732326	-0.326654
H	 0.1733663068	 1.7232207534	 1.2505481283	 0.286387
H	 0.6380381632	 0.5749839938	-0.8162711363	 0.075387
H	 1.448623567	-1.4033769319	 0.2700061756	 0.097222
H	 1.4835099928	-0.2400059622	 1.6089504583	 0.100691
H	 0.0660911312	-2.3814470562	 1.9829067937	 0.238652
H	-2.3021312914	-1.1937983789	 1.3287006584	 0.132938
H	-1.9985259055	-0.0557284589	-0.7334262009	 0.132742
H	-0.8298668439	-1.2609636762	-1.3060491109	 0.126937
