19
gdb 70794	2.87238	1.67638	1.4243	2.5676	74.2	-0.2359	0.0721	0.308	986.2747	0.159394	-422.987572	-422.979908	-422.978964	-423.019047	31.387	
C	 0.0039765241	 1.543667222	-0.0230447153	-0.50938
C	 0.0103322992	 0.0401180473	-0.0886507678	 0.320258
C	 0.4424817187	-0.79860324	-1.3063003185	-0.367421
C	-0.2821455139	-1.9587015819	-0.5617036361	 0.372564
O	-0.8587022828	-3.0435660499	-1.2115777259	-0.49024
C	 0.6476940505	-2.1742946901	 0.6559954895	-0.28676
C	 0.3383244513	-0.7835354455	 1.234410728	 0.028615
O	-1.0877592209	-0.9089116447	 1.5255981837	-0.296891
C	-1.232849866	-0.8635648144	 0.1015580706	 0.024786
H	 1.0234678323	 1.9448656308	 0.0139990697	 0.117105
H	-0.4917288834	 1.9780193219	-0.8976818666	 0.117923
H	-0.5255139325	 1.8852614942	 0.872702142	 0.131955
H	-0.1042313373	-0.4835772304	-2.2004967801	 0.102676
H	 1.5058948913	-0.9164466117	-1.5383936311	 0.086934
H	-0.1602888798	-3.6482663001	-1.4841678075	 0.281007
H	 0.3106374872	-2.9610018711	 1.3341387433	 0.111688
H	 1.6920272037	-2.334600985	 0.3716766911	 0.089815
H	 0.9243291379	-0.3817988942	 2.0612703892	 0.077778
H	-2.2396307096	-0.7057135572	-0.2829773284	 0.087588
