17
gdb 38152	3.0781	1.88413	1.3622	1.8262	71.28	-0.252	-0.0063	0.2457	928.5204	0.13927	-417.987259	-417.980626	-417.979682	-418.018225	26.495	
C	-0.1282655031	 1.4242787274	 0.1116350059	-0.316271
N	 1.2331961583	 0.8489798822	-0.084293068	-0.154346
C	 1.8888897217	 0.5587624715	 1.1505592202	 0.024546
N	 1.4359281155	-0.3733885496	 1.8919000348	-0.20899
C	 0.2417040974	-0.9047633403	 1.2252980952	-0.068938
C	 0.4241347641	-2.2905385321	 0.5663543819	-0.084859
O	-0.4054159295	-2.2578259049	-0.5875716411	-0.254959
C	-0.329645648	-0.9571128186	-1.1682370984	-0.167376
C	 0.0409064738	-0.0328066008	-0.0205542865	 0.295229
H	-0.3656488627	 1.8303619569	 1.0925702032	 0.129524
H	-0.4818767337	 2.0129518633	-0.7300068707	 0.131077
H	 2.7871160122	 1.1211567043	 1.3898193782	 0.129999
H	-0.6012214089	-0.9175920821	 1.9220749202	 0.096656
H	 1.4833845085	-2.4351570453	 0.302803768	 0.101778
H	 0.0964383896	-3.125562223	 1.1882947495	 0.118867
H	 0.4349536058	-0.9124968523	-1.9570456165	 0.11317
H	-1.3053727711	-0.7319478965	-1.6094137957	 0.114894
