19
gdb 1346	4.07202	2.23422	2.14319	0.1198	72.21	-0.2351	0.03	0.2651	756.1592	0.171962	-273.806375	-273.798985	-273.798041	-273.837238	28.681	
C	 0.218751516	 1.4150227778	 0.0095561615	-0.415668
C	-0.1115096375	-0.0926782115	 0.0039865258	 0.284605
C	-1.6367953084	-0.2829916103	 0.0050998053	-0.427259
C	 0.567905285	-0.8212710988	-1.1983954704	-0.244844
C	 1.8612683442	-1.4719836396	-0.6446857406	-0.255542
C	 1.6112787522	-1.5035457421	 0.8446693562	-0.076782
C	 0.5541552067	-0.7724948462	 1.1885396261	-0.08077
H	 1.2990639849	 1.5830637512	-0.0445348146	 0.112583
H	-0.2486330986	 1.9199955392	-0.8437776907	 0.107626
H	-0.1474640582	 1.8965104651	 0.9232270445	 0.107707
H	-2.0857352415	 0.1463581612	-0.8980062117	 0.109196
H	-1.9016030489	-1.3445829815	 0.0425601314	 0.111287
H	-2.0978157889	 0.2095645481	 0.8689322476	 0.106956
H	-0.1014385001	-1.6054662448	-1.5670818992	 0.095964
H	 0.7587294838	-0.1434532506	-2.0355404305	 0.090744
H	 2.0414337135	-2.4666792876	-1.0685260011	 0.100251
H	 2.7572762533	-0.8787064161	-0.8756834291	 0.103587
H	 2.2548381941	-2.0383893562	 1.5352792296	 0.087663
H	 0.2008267083	-0.6169922874	 2.2036128	 0.082695
