15
gdb 1611	4.81982	1.94966	1.44909	3.5222	61.23	-0.2335	-0.0683	0.1652	826.9346	0.123837	-341.835805	-341.827772	-341.826828	-341.868118	27.441	
C	-0.0037871092	 1.4178624056	-0.1187283144	-0.31907
N	-0.0029668591	-0.0359300164	-0.1884393708	-0.080434
C	 1.2264460122	-0.6560721081	 0.2860085885	-0.344615
C	-1.2199225733	-0.6621616866	-0.0044581543	 0.264805
N	-2.2914301512	-0.010229945	 0.2507966075	-0.508509
C	-1.2704125496	-2.1544759016	-0.283292446	 0.097242
O	-2.2428043112	-2.8163737032	-0.0255353911	-0.238283
H	 0.9318437664	 1.7907823603	-0.5455647441	 0.116415
H	-0.8519863704	 1.8064360244	-0.6821719192	 0.156721
H	-0.0932654665	 1.7833064325	 0.9144759466	 0.125612
H	 1.433359821	-0.4004915563	 1.3366769082	 0.127751
H	 1.1799115701	-1.74316977	 0.2130468878	 0.133636
H	 2.0704079691	-0.311392229	-0.3198394462	 0.134379
H	-3.0738786092	-0.6679773013	 0.2495336577	 0.236023
H	-0.3952658191	-2.600376145	-0.79710332	 0.098329
