19
gdb 67794	3.06695	1.86804	1.47774	0.245	84.68	-0.2157	0.0143	0.2301	948.1881	0.161296	-348.756204	-348.749202	-348.748258	-348.78697	29.636	
C	-0.0371879476	 1.5374777513	 0.0107512742	-0.490202
C	-0.0319282028	 0.0291785621	-0.0677914011	 0.313172
C	 0.8676215732	-0.6624078449	-1.0138193658	-0.131938
C	 0.3581099576	-1.836460484	-1.4133702501	-0.087731
C	-0.915394619	-2.1588987441	-0.6334527898	-0.161018
C	-0.3449456002	-2.9466742575	 0.5465080795	-0.088395
C	-0.0398756453	-2.1186551391	 1.5573819296	-0.066588
C	-0.485030342	-0.7447828328	 1.2720398592	-0.123144
C	-1.2879760977	-0.7911367212	 0.0015926663	-0.114779
H	 0.9346399708	 1.9240106165	 0.3379945458	 0.119805
H	-0.2586869402	 1.9800848769	-0.9673866316	 0.121206
H	-0.7913305256	 1.8981024282	 0.7173669122	 0.11516
H	 1.8356470974	-0.2658365591	-1.3001914343	 0.086749
H	 0.8557791297	-2.5628145242	-2.0458038813	 0.09424
H	-1.7037009048	-2.659444746	-1.1998533618	 0.067988
H	-0.0626676726	-3.9903610209	 0.4702402819	 0.093842
H	 0.5059821674	-2.3933729643	 2.452492187	 0.089671
H	-0.7456452274	-0.0708313683	 2.0807561754	 0.082551
H	-2.280469691	-0.3636322387	-0.0942711054	 0.07941
