15
gdb 67697	2.3641	1.89736	1.46332	3.9083	64.74	-0.2425	-0.009	0.2335	917.8718	0.112474	-457.737939	-457.730755	-457.729811	-457.769479	27.923	
O	-0.122988538	 1.3839547975	 0.0943471106	-0.45316
C	 0.0516937957	 0.0260305528	 0.0117250036	 0.337778
C	 0.0514521971	-0.8739030178	-1.1490975427	 0.022565
O	 1.1252897763	-1.7744143103	-1.171635165	-0.261497
C	 1.8329569828	-1.6226497687	 0.0716856773	-0.095282
C	 0.8417885725	-0.9049269269	 0.9942511566	-0.281406
C	-0.4767864173	-1.7183816534	 1.1092990004	 0.465595
O	-0.896288237	-2.4762500901	 1.9372143476	-0.332522
C	-1.0699850363	-1.0485161695	-0.083792943	-0.286701
H	 0.6138606444	 1.8199389217	-0.3491154633	 0.297298
H	-0.2897200915	-0.5643100535	-2.1296481033	 0.127499
H	 2.1168365999	-2.6173422863	 0.4261236617	 0.133053
H	 2.7436681796	-1.0251178127	-0.0815366355	 0.101658
H	 1.2454573629	-0.48909271	 1.9156473987	 0.108277
H	-2.1131340511	-0.9500906628	-0.3592649237	 0.116843
