20
gdb 92582	3.27938	1.42364	1.0907	1.4854	81.99	-0.2089	0.014	0.2229	1149.3737	0.172052	-403.121494	-403.11348	-403.112535	-403.153955	31.137	
C	-0.0821403915	 1.5768233975	 0.0879234385	-0.325854
N	-0.0346313039	 0.133787561	 0.0736048194	-0.073942
C	-1.2542250485	-0.6121421057	 0.4497089445	-0.192145
C	-0.3839524082	-1.6212042357	 1.2216757878	 0.097035
O	-0.1319059146	-2.7672416455	 0.4407117132	-0.263019
C	 1.1188075586	-3.376088046	 0.7074848402	-0.124405
C	 2.2720095433	-2.4076387719	 0.6524112031	-0.076119
C	 2.0955677185	-1.0967100335	 0.7987393286	-0.066194
C	 0.7407612508	-0.5601485026	 1.1366303844	-0.019679
H	 0.9116158133	 1.9862287291	-0.1235224833	 0.119226
H	-0.76113478	 1.9339925894	-0.6939098771	 0.121539
H	-0.4261695811	 1.9952848383	 1.0549846566	 0.084731
H	-1.9238486664	-0.0504420797	 1.1212175969	 0.081402
H	-1.8292267104	-1.0146844608	-0.3898225597	 0.112038
H	-0.7130239839	-1.9000666458	 2.2310591528	 0.065329
H	 1.1023579654	-3.8977935815	 1.6826307704	 0.096435
H	 1.2401618899	-4.149272314	-0.0591319147	 0.118685
H	 3.2568183759	-2.8307560918	 0.4723536837	 0.0949
H	 2.9270541903	-0.4020014295	 0.7139969568	 0.090918
H	 0.7852787524	 0.0384086387	 2.0641513977	 0.059122
