17
gdb 12762	3.60593	1.70905	1.39576	4.2535	70.38	-0.2321	0.0251	0.2572	929.1845	0.142005	-363.854441	-363.846768	-363.845823	-363.886494	28.499	
C	 0.0277963139	 1.5860720198	 0.1343714008	-0.486821
C	 0.1007538723	 0.0929336122	 0.0245565441	 0.351363
C	-0.8928919163	-0.8883812052	 0.5916713099	-0.317219
C	 0.5593575509	-0.9902603148	 0.998563252	-0.135918
C	 1.386762002	-1.6173649167	-0.1332640388	-0.180873
N	 0.8785098579	-0.5646741703	-1.0315332314	-0.081428
C	 0.6566197114	-0.6467189648	-2.3681454941	 0.122234
O	 1.1266596819	-1.4972394507	-3.095195176	-0.327025
H	 1.0228854056	 2.0344610533	 0.0522893458	 0.13202
H	-0.6051570374	 2.0163728871	-0.6497842747	 0.131525
H	-0.4037537316	 1.872666358	 1.0978556732	 0.128724
H	-1.5531299722	-0.4886382485	 1.3553013605	 0.120051
H	-1.3418780508	-1.6461873739	-0.0452328437	 0.119316
H	 0.8894031441	-0.878482947	 2.0219939596	 0.104131
H	 2.468619732	-1.5465278789	 0.0124216583	 0.124717
H	 1.1265014165	-2.6338165445	-0.4445042252	 0.128426
H	 0.0206533197	 0.1858225248	-2.7341488203	 0.066776
