19
gdb 62803	3.03964	1.30291	1.13213	3.7114	76.29	-0.2444	-0.0276	0.2167	1147.3126	0.156588	-422.98904	-422.980145	-422.979201	-423.022306	33.502	
C	-0.0657462791	 1.5450211101	-0.1614873332	-0.482153
C	 0.0029020065	 0.0385696845	-0.0123177217	 0.301012
C	-1.2179388342	-0.7056394438	-0.5316235074	-0.454853
C	 1.2857841087	-0.7133917084	-0.1934607898	 0.05763
O	 2.426339785	 0.0368987246	 0.2476181348	-0.281122
C	 1.9617453268	-0.0324408774	 1.606913262	 0.023291
C	 1.9505532847	 1.2481145074	 2.4046455071	 0.150109
O	 2.3306215355	 2.3246844451	 2.0283995769	-0.241221
C	 0.6368400594	-0.6806918853	 1.1803957593	-0.21742
H	 0.8992321511	 2.0145629455	 0.0292360939	 0.165909
H	-0.3709383184	 1.8008554571	-1.1824922291	 0.112024
H	-0.8056278434	 1.9770257109	 0.5217432356	 0.112285
H	-1.3954168153	-0.4640774341	-1.5850001665	 0.124002
H	-1.1012034404	-1.7915455282	-0.4501342004	 0.114705
H	-2.1138880386	-0.4234847351	 0.0321247168	 0.124105
H	 1.4635672085	-1.5201630672	-0.8962486973	 0.106264
H	 2.568337954	-0.7547276307	 2.1793043141	 0.107068
H	 1.5551832619	 1.0923995544	 3.4376788371	 0.076429
H	 0.1269730173	-1.4600104493	 1.7310169578	 0.101934
