23
gdb 92744	2.32784	1.35684	1.04116	1.6211	87.71	-0.2356	0.0253	0.2609	1283.8572	0.205902	-388.322084	-388.312509	-388.311565	-388.355803	37.246	
C	 0.0529036157	 1.574933946	-0.0018185602	-0.408662
C	 0.0435575307	 0.0448597726	 0.0177948371	 0.021198
C	 0.7159891711	-0.5442928325	-1.2349990567	-0.301439
C	 1.0075878267	-2.0265212359	-1.1403368196	 0.307244
C	 1.3991070624	-2.7060931701	-2.4247452176	-0.47567
C	 0.9310052637	-2.6840842943	 0.0217404961	-0.157621
C	 0.5608052643	-2.0410402461	 1.3356446531	-0.288739
C	 0.7196765936	-0.5171878934	 1.2826851583	 0.123009
O	 2.0947876548	-0.1390617031	 1.3536249701	-0.44626
H	 1.078268343	 1.9463857789	 0.0860183402	 0.130108
H	-0.3779524301	 1.9649120779	-0.9301520238	 0.103884
H	-0.5248942814	 1.9846356139	 0.8336502761	 0.107095
H	-0.998506015	-0.3042403172	 0.0366416311	 0.06944
H	 0.0884113609	-0.3508173089	-2.1151518686	 0.101177
H	 1.6550616272	-0.0050255103	-1.4358435776	 0.104888
H	 2.2770938297	-2.2260371891	-2.8766238152	 0.120939
H	 1.6316989076	-3.7632515457	-2.2707034273	 0.119381
H	 0.5945961303	-2.6380342126	-3.1684614684	 0.122676
H	 1.1460881202	-3.7508554508	 0.040845696	 0.076631
H	-0.4732597863	-2.2991056613	 1.6067353576	 0.106738
H	 1.1904933328	-2.4340587805	 2.143191625	 0.106739
H	 0.2604117387	-0.0670044712	 2.1702013546	 0.075028
H	 2.5780978196	-0.7088327163	 0.7446158898	 0.282217
