16
gdb 371	6.4208	2.16929	1.73642	0.7089	62.36	-0.2575	0.0581	0.3157	736.4751	0.14095	-234.474088	-234.466434	-234.46549	-234.505226	27.469	
C	-0.0832845714	 1.5481788838	 0.062683198	-0.394048
C	 0.0093709836	 0.0212906459	-0.0005038162	-0.159889
C	 0.7626082106	-0.5157262506	-1.243135869	-0.137341
C	 2.2461137849	-0.0949523719	-1.2753030151	-0.384919
C	 0.6415980761	-1.971411322	-1.3180236851	 0.320171
C	 0.5497675393	-3.1697605579	-1.3573791744	-0.468759
H	 0.8995487793	 2.0178342556	 0.1654571703	 0.120549
H	-0.554918294	 1.9547984971	-0.8392927181	 0.114976
H	-0.6861899738	 1.8612769174	 0.920534055	 0.115961
H	 0.5020658833	-0.3648595584	 0.9001109953	 0.105287
H	-0.9994670508	-0.4052124461	-0.0042539584	 0.108115
H	 0.2734099135	-0.0933834228	-2.1332828523	 0.102153
H	 2.7454343424	-0.5082654317	-2.1552741197	 0.125793
H	 2.3426555038	 0.9934291957	-1.3083846855	 0.116344
H	 2.7690571664	-0.462327748	-0.3866419959	 0.124116
H	 0.4635124768	-4.2269075861	-1.403353619	 0.191492
