16
gdb 15501	3.6428	1.89129	1.29028	5.0653	67.04	-0.2473	-0.0221	0.2252	916.7054	0.132909	-379.971871	-379.964704	-379.96376	-380.003433	26.482	
N	-0.1418194933	 1.2890527806	-0.182397833	-0.532611
C	-0.0682050583	 0.0359283756	-0.0389886692	 0.391074
C	-1.2529409044	-0.8939786171	 0.1444929232	-0.282213
C	-0.6467966467	-2.1576113862	 0.7749830871	-0.226244
C	 0.7636225666	-2.2063249617	 0.1666064119	-0.177502
N	 1.0964681201	-0.787566025	-0.0151125783	-0.104208
C	 2.383912071	-0.344379312	-0.1611239492	 0.153708
O	 2.7196238364	 0.8076501971	-0.3354216806	-0.314656
H	 0.788045161	 1.691391099	-0.3066402223	 0.251514
H	-2.0304433117	-0.4168029301	 0.7413336642	 0.138644
H	-1.6819698377	-1.1154553225	-0.8405172271	 0.129923
H	-0.5758554808	-2.0408728106	 1.8609179066	 0.122783
H	-1.2151276135	-3.0662431797	 0.5688598754	 0.115306
H	 1.4970347001	-2.6965585793	 0.8120206947	 0.126009
H	 0.759025822	-2.7264586041	-0.8002015072	 0.121962
H	 3.1148861593	-1.1739660839	-0.0950892761	 0.086513
