18
gdb 45484	2.70024	1.8445	1.66182	4.0903	73.47	-0.2436	-0.0055	0.2381	904.7947	0.151139	-401.973419	-401.966787	-401.965842	-402.004448	27.156	
O	-0.0926592873	 0.001345105	 0.2284918711	-0.31526
C	-0.0940257501	 1.1900332217	 0.0637339645	 0.371109
C	-1.3053828119	 2.1127483058	-0.1078743063	-0.314669
C	-0.7977359205	 3.4382001019	 0.492359761	-0.064478
C	-0.7880546083	 3.4096935437	 2.0406620975	-0.204179
C	 0.492815632	 2.6298096211	 2.4501734334	-0.24962
C	 1.4239664722	 2.759879954	 1.247000538	-0.024026
C	 0.7019543394	 3.4049130329	 0.1196392475	-0.059008
N	 1.0896039598	 1.993001164	 0.0124229465	-0.131803
H	-1.5192866744	 2.2222965039	-1.1780406234	 0.129589
H	-2.189030885	 1.6888643551	 0.3728585792	 0.12646
H	-1.3244702062	 4.3080596663	 0.0975358737	 0.07967
H	-0.7181237979	 4.436616704	 2.4139444603	 0.10679
H	-1.7018032324	 2.9745120335	 2.456825317	 0.105713
H	 0.9606420145	 3.061596857	 3.3389623608	 0.106453
H	 0.2866176033	 1.5792789848	 2.6799033276	 0.133975
H	 2.4912897323	 2.8765843233	 1.4068209851	 0.105949
H	 1.1466642505	 4.1017433218	-0.5828225535	 0.097334
