16
gdb 37262	3.27681	2.16655	1.72528	1.0787	68.9	-0.2286	0.0548	0.2835	802.2656	0.127108	-400.650112	-400.644447	-400.643503	-400.679787	24.601	
O	-0.0123715709	 1.4415947112	 0.1438918416	-0.259377
C	 1.2608782767	 0.8057663636	-0.0056578528	 0.025215
C	 0.033454835	 0.0103939405	 0.0277165576	 0.029414
C	-0.3777572778	-0.5804071537	-1.2783816314	-0.048547
C	-0.15059934	 0.1015013302	-2.5679526585	-0.053237
C	 1.1363882921	 0.9456723768	-2.6312022744	-0.114857
C	 1.9183289912	 0.868355868	-1.3415650156	-0.071103
C	 1.8786396813	-0.3181692122	-2.2870504759	-0.028349
N	 0.6168854365	-1.1525147351	-2.262330192	-0.178678
H	 1.9046013476	 0.8600678946	 0.8698435051	 0.096161
H	-0.2584192672	-0.5283863486	 0.9258942588	 0.097447
H	-1.2476717544	-1.2308541543	-1.2459764201	 0.100687
H	-0.8936656991	 0.1177136971	-3.3588517168	 0.102186
H	 1.3329613899	 1.6904564682	-3.389836023	 0.100621
H	 2.8631631523	 1.4022282087	-1.3897624282	 0.096663
H	 2.7659582467	-0.7775400249	-2.7024822743	 0.105753
