15
gdb 11809	3.47155	1.8207	1.38353	1.3829	61.96	-0.2414	-0.0359	0.2054	882.5876	0.117751	-399.765078	-399.75744	-399.756496	-399.797165	28.068	
O	 0.5323341706	 0.8502267365	-0.7154310471	-0.419747
C	 0.1202693403	-0.3084229579	-0.0574977827	-0.022141
C	 0.0740741785	-0.3647704834	 1.4851525776	 0.339255
O	 0.6783913935	 0.2303965532	 2.3299006153	-0.294667
C	-1.2225389254	-1.1976724236	 1.4659602573	-0.414666
C	-1.3694871514	-0.7322229779	 0.0085173461	 0.296664
C	-2.4771211542	 0.0221064176	-0.6101824067	-0.297804
N	-2.1657212227	-1.3653724259	-1.0253298237	-0.371359
H	 0.3727328136	 1.6000511742	-0.1306586325	 0.295701
H	 0.7210973196	-1.143380887	-0.4456828415	 0.119775
H	-1.0367184303	-2.2730845465	 1.5577097698	 0.140773
H	-1.9890927179	-0.9019541135	 2.1848004162	 0.139179
H	-3.4206800383	 0.1394964891	-0.0843685707	 0.124931
H	-2.2126952851	 0.8356190315	-1.2809550297	 0.125518
H	-1.6639187607	-1.3562725264	-1.9113422478	 0.238589
