16
gdb 97795	3.26529	0.69672	0.60645	2.4043	76.8	-0.2513	-0.035	0.2163	1768.7282	0.122161	-437.821771	-437.812196	-437.811252	-437.858299	32.775	
O	 0.0647494023	 1.4613014063	-0.1543425572	-0.398713
C	 0.0406714133	 0.1080971992	 0.2739544927	-0.196633
C	-1.2943425697	-0.4895933342	 0.2449358353	 0.117915
C	-2.4017294616	-0.9584587111	 0.1657448559	 0.098197
C	-3.7316307235	-1.502266623	 0.131622636	-0.258397
N	-4.3169817352	-1.822968921	-1.1761791933	-0.317359
C	-4.0256055124	-2.9351813352	-0.2595621584	-0.11697
C	-2.9211007182	-3.84284809	-0.6869540439	 0.181756
O	-2.8296320793	-4.9890750947	-0.3283536961	-0.254398
H	-0.3504628661	 1.4975592697	-1.0225384102	 0.290353
H	 0.7276645647	-0.5162307412	-0.3192219821	 0.124305
H	 0.425365562	 0.1123178608	 1.2997656647	 0.145585
H	-4.4015277489	-1.1127078273	 0.8961101748	 0.124863
H	-5.3134709259	-1.6215474902	-1.1745577675	 0.250486
H	-4.8354660316	-3.4258409886	 0.2743787392	 0.113184
H	-2.1870230699	-3.3686068192	-1.3710312497	 0.095826
