22
gdb 79822	2.08557	1.87756	1.62918	1.7386	84.22	-0.2173	0.0818	0.2991	1022.5914	0.195673	-367.188064	-367.179871	-367.178927	-367.220019	33.371	
C	-0.3785293977	 1.5355360308	-0.0000858	-0.424964
C	 0.0344455859	 0.0720187687	 0.0337752619	 0.057994
N	 0.9724448606	-0.4253826227	-1.0380433744	-0.173777
C	 2.3889538145	-0.2138627763	-0.6112471262	-0.012045
C	 2.7669241028	 0.8412972686	 0.4198705703	-0.254414
C	 1.9477483247	 0.445572018	 1.6762017516	-0.248684
C	 0.9022151923	-0.5637513957	 1.164687462	 0.283514
C	 0.1866738092	-1.3500896743	 2.2452912504	-0.4956
C	 1.6184109487	-1.3094360239	 0.001188662	-0.092708
H	 0.4508224779	 2.2269910571	 0.159431587	 0.118032
H	-0.81911244	 1.7641106201	-0.9765215533	 0.127278
H	-1.1380848906	 1.7363914315	 0.7637433633	 0.114313
H	-0.8694829153	-0.5370904326	-0.0884697081	 0.07691
H	 3.0701159894	-0.4149927107	-1.4320557319	 0.090848
H	 3.8444681099	 0.7958813377	 0.6098775322	 0.101851
H	 2.5566550758	 1.8563117028	 0.0698591673	 0.107823
H	 2.5925432969	-0.0402784808	 2.4178197578	 0.094945
H	 1.4796209316	 1.3044656209	 2.168712352	 0.096057
H	-0.3825368741	-0.6853865081	 2.9054624031	 0.116419
H	-0.5149858498	-2.0732245491	 1.8162590719	 0.116582
H	 0.8980601065	-1.9024472486	 2.8703175273	 0.114079
H	 1.752060781	-2.3770257136	-0.1345756561	 0.085547
