18
gdb 105658	2.00973	1.42547	1.22999	6.1995	72.61	-0.2445	0.0104	0.2549	1142.6702	0.147815	-435.236979	-435.227419	-435.226474	-435.27144	34.579	
N	-0.1065681725	 1.4576733601	 0.213311443	-0.505194
C	 0.0505754195	 0.0190464014	 0.0543595775	-0.190092
C	 0.9754688507	-0.5013136993	 1.1526100263	 0.26929
O	 0.3846046786	-0.3054515242	 2.4642764674	-0.313653
C	 0.1800556596	-1.722552781	 2.6531612445	-0.096338
C	 0.9920815456	-2.0564351518	 1.375388904	-0.091618
N	 0.4729880822	-2.8888386128	 0.3229228359	-0.510852
C	 2.3064107924	 0.11437819	 1.0755117328	 0.283637
N	 3.3865606746	 0.5211474448	 1.0183037954	-0.345249
H	-0.702109993	 1.8348881869	-0.5151457461	 0.234466
H	-0.5545057972	 1.650692591	 1.103790534	 0.242253
H	-0.8902983481	-0.5548963604	 0.1115711743	 0.074415
H	 0.5019251886	-0.1978654915	-0.9190148866	 0.133976
H	 0.5822699177	-2.0694394155	 3.6107356028	 0.118647
H	-0.8825624766	-1.9956053876	 2.5874919586	 0.096756
H	 2.0036846068	-2.3874777023	 1.613615379	 0.120176
H	 0.7862014451	-3.8467085701	 0.4178461605	 0.244165
H	-0.540317944	-2.8934946777	 0.2996851567	 0.235217
