19
gdb 47499	2.65354	1.45805	1.09777	3.861	75.43	-0.2386	-0.0145	0.2241	1133.9694	0.1599	-423.046536	-423.038557	-423.037612	-423.079226	31.076	
O	 0.0723678345	-0.0658864553	-0.0115983966	-0.300675
C	 0.008050946	 1.1380062133	 0.0500676237	 0.392135
C	-1.3128186356	 1.8916314125	 0.1431635269	-0.292338
C	-1.2834543197	 2.9892186411	 1.2239492318	-0.214387
C	-0.0873082892	 3.9335352697	 1.0318429074	-0.270859
C	 1.2046150527	 3.1404267998	 1.0361402325	 0.419724
C	 2.4466945763	 3.7062003491	 1.5737999827	-0.245917
O	 1.6775037767	 2.7759944179	 2.3429785083	-0.273243
C	 1.2573849178	 2.0193177359	 0.0089277316	-0.371881
H	-1.4912917536	 2.3585167593	-0.8371986127	 0.11545
H	-2.1115178368	 1.1659201236	 0.3122865368	 0.122892
H	-2.2214980714	 3.5524494482	 1.2042949895	 0.104059
H	-1.2102433426	 2.5245839892	 2.2140752877	 0.1273
H	-0.1818874174	 4.4697401297	 0.0776592803	 0.099362
H	-0.0557904688	 4.6827304329	 1.828042323	 0.109038
H	 3.4078723046	 3.3358776211	 1.2186977256	 0.114802
H	 2.4560872917	 4.7290410938	 1.9494162853	 0.113079
H	 2.139307486	 1.3918326714	 0.1505201982	 0.129561
H	 1.3085506088	 2.4636835566	-0.9959405523	 0.121897
