23
gdb 115899	3.14441	1.27097	1.132	1.346	85.08	-0.2406	0.0805	0.3211	1215.6956	0.207947	-388.287099	-388.278641	-388.277696	-388.320196	33.413	
C	-0.0446192489	 1.6444169457	 0.1678834541	-0.38172
C	 0.0309426288	 0.1157484799	 0.2045448022	-0.186861
C	-1.3226093441	-0.548338815	-0.0756018164	 0.151972
O	-1.8367401714	-0.153228744	-1.3553262631	-0.286503
C	-1.7442678697	-1.0874547008	-2.4266856192	-0.067395
C	-1.7279987703	-2.5374305438	-1.9397197396	-0.024983
C	-2.5802238961	-2.6371050774	-0.6430520406	-0.234248
C	-1.3184827198	-2.0756751605	 0.0733533665	-0.039742
C	-0.4766187375	-2.7430792088	-1.0496685643	-0.228378
H	 0.9385664522	 2.0951344683	 0.3337016711	 0.105526
H	-0.421614848	 1.9836018125	-0.8003827179	 0.132222
H	-0.7216700572	 2.0251650689	 0.9410039723	 0.10965
H	 0.7700325574	-0.2344991737	-0.5252431371	 0.096141
H	 0.3818819439	-0.2211071432	 1.1891803062	 0.089298
H	-2.0500345933	-0.1462027988	 0.6464977274	 0.072955
H	-2.6209757119	-0.9000939405	-3.0588845637	 0.1007
H	-0.8476132303	-0.8918679991	-3.0377940297	 0.085727
H	-1.9140688997	-3.2287858704	-2.7655558609	 0.061717
H	-3.5018025204	-2.051686418	-0.5868359136	 0.101399
H	-2.7795694312	-3.6750738651	-0.3659358686	 0.094057
H	-1.1243515687	-2.3566002243	 1.1115087626	 0.062123
H	-0.2899871878	-3.7989231066	-0.8363070032	 0.094184
H	 0.458277904	-2.2703306351	-1.3637987645	 0.09216
