23
gdb 121022	3.11006	1.01672	0.83438	0.9028	87.78	-0.2374	0.0259	0.2633	1477.3825	0.205221	-388.302079	-388.292241	-388.291297	-388.337243	36.464	
C	-0.5410446123	 1.3092369958	-0.2036050721	-0.385648
C	 0.1394726796	-0.0495235861	-0.1855580319	-0.033159
O	 0.3034810857	-0.4491592822	 1.1606193877	-0.253923
C	 0.8329228006	-1.7447574749	 1.3253131187	 0.137897
C	 2.3310058412	-1.9058091475	 0.9413731048	-0.282292
C	 2.8079998473	-2.9333540127	 1.9384261214	-0.070045
C	 1.9396197705	-3.1016452578	 2.9348347638	-0.066269
C	 0.7344737443	-2.1954668303	 2.8117926134	-0.076125
C	 0.776702737	-1.0346703993	 3.8206766856	-0.376241
H	 0.0665266792	 2.0489996329	 0.3254986705	 0.126033
H	-0.6856072052	 1.6509370367	-1.2329682982	 0.112812
H	-1.5172928129	 1.2552843141	 0.2864828904	 0.124811
H	-0.4677443087	-0.7942846967	-0.7283108138	 0.083552
H	 1.1138531767	 0.0042253986	-0.6969793834	 0.088801
H	 0.2507247071	-2.4542906582	 0.7140794457	 0.06504
H	 2.471061826	-2.2180093366	-0.0993725084	 0.098524
H	 2.8613312668	-0.9503570884	 1.0612629861	 0.111097
H	 3.7600147825	-3.4443330199	 1.843171879	 0.089756
H	 2.0790768866	-3.7648142412	 3.7821761526	 0.089081
H	-0.2006330565	-2.7463604296	 2.9720058252	 0.072334
H	 1.6926245641	-0.4465442868	 3.7098597327	 0.115569
H	-0.0741814571	-0.3652222344	 3.6758735217	 0.125335
H	 0.7470680374	-1.4216497255	 4.8445925983	 0.103061
