21
gdb 107248	2.85455	1.40767	1.09468	3.114	82.61	-0.1925	0.072	0.2645	1190.1224	0.181581	-383.170002	-383.161029	-383.160085	-383.203362	34.963	
C	 2.6186633025	 1.6014367667	 0.4851790637	-0.397799
C	 1.3450691067	 1.4093685686	-0.3457207214	-0.304989
C	 1.4642313296	 0.4095406804	-1.4624424555	 0.30878
N	 2.1562878007	-0.8946486818	-1.3427660831	-0.355248
C	 2.562437013	 0.0725003492	-2.3990180356	-0.124671
C	 1.5495472497	-0.0232043196	-3.578229697	-0.124502
N	 0.5292011617	-1.0528688302	-3.2458254997	-0.347298
C	 0.4328911434	 0.3080099325	-2.6645577047	 0.291408
C	-0.7748898102	 1.1756018146	-2.8369241772	-0.51209
H	 2.8904925647	 0.693554727	 1.0335888949	 0.123822
H	 3.4670640191	 1.8841886802	-0.1470093516	 0.121212
H	 2.476101858	 2.3945981782	 1.2245813749	 0.119268
H	 0.5207122395	 1.109858588	 0.3164798498	 0.109731
H	 1.0503178468	 2.376729898	-0.7724244522	 0.104282
H	 2.8416474749	-0.789963041	-0.5935978924	 0.221931
H	 3.575939352	 0.4478901477	-2.4619861044	 0.089542
H	 1.7337433624	 0.286750602	-4.5993018277	 0.088258
H	-0.1209905474	-1.0674675526	-4.0338610502	 0.218915
H	-1.5950405613	 0.8575815717	-2.1819937518	 0.129317
H	-0.5555821779	 2.2244152152	-2.6094621836	 0.123381
H	-1.1362304878	 1.1312876953	-3.8703437652	 0.116751
