14
gdb 4596	5.65836	1.56738	1.23677	4.0583	68.86	-0.2238	-0.0582	0.1656	928.6565	0.108982	-378.785927	-378.779092	-378.778148	-378.816951	25.533	
C	-0.0002387194	 1.5369293794	 0.0294812726	-0.467378
C	-0.0365244679	 0.0360939638	 0.0163248324	 0.295892
C	-1.1812099163	-0.6797706005	-0.154007277	-0.056325
N	-1.1400358029	-2.0454698232	-0.1549961449	-0.333484
C	 0.0302605346	-2.7899322031	 0.0114749996	 0.384197
O	 0.0308740477	-4.0079971122	 0.0054241222	-0.387403
C	 1.1946471062	-1.9144679972	 0.1853290812	-0.104366
N	 1.1639598453	-0.6187176201	 0.1876515977	-0.265685
H	 0.6536376484	 1.9157802443	-0.7631335285	 0.140289
H	-0.9967221164	 1.9634191119	-0.1128589393	 0.117962
H	 0.4009941078	 1.9066180341	 0.9790316492	 0.1403
H	-2.1544153312	-0.2249370888	-0.293216728	 0.134404
H	-1.9845462126	-2.5870653369	-0.2806047578	 0.267774
H	 2.1494601868	-2.4175782315	 0.3219967406	 0.133823
