19
gdb 27878	1.80517	1.77954	0.90274	2.1725	89.91	-0.1836	0.0229	0.2065	1289.1841	0.160812	-382.147683	-382.138612	-382.137667	-382.181426	35.205	
C	-0.0247167276	 1.5130074514	 0.0103184612	-0.489419
C	 0.0059215072	 0.0028382395	 0.0020285649	 0.353196
C	 0.0255713728	-0.6904660518	-1.2071736254	-0.307529
C	 0.0870765835	-2.0898550058	-1.223228377	 0.345902
N	 0.1686421697	-2.7790334434	-2.4376534951	-0.591557
C	 0.1201071336	-2.7892360871	-0.0137391457	-0.28334
C	 0.0999698966	-2.1030509113	 1.2035164541	 0.345864
N	 0.1944296677	-2.8053359968	 2.4095141039	-0.591547
C	 0.0383856239	-0.7035419381	 1.2033214787	-0.307574
H	 0.9907433788	 1.92813708	 0.0035773031	 0.131544
H	-0.5420779582	 1.9079390145	-0.8690571247	 0.118731
H	-0.5266073299	 1.898523701	 0.9027132112	 0.118668
H	-0.0027541401	-0.1448078746	-2.1461400172	 0.064695
H	-0.2247823456	-2.2825829457	-3.2241508358	 0.242368
H	-0.1676113672	-3.7307053503	-2.4036692846	 0.24071
H	 0.1711321134	-3.8750846562	-0.0199160962	 0.061497
H	-0.1423190075	-3.7565779169	 2.3687358872	 0.240703
H	-0.1908558678	-2.3174708488	 3.2053713054	 0.242364
H	 0.0200934167	-0.1681229194	 2.1484057621	 0.064723
