20
gdb 55916	3.48938	1.06492	0.90614	3.4672	79.21	-0.2362	-0.0082	0.2281	1316.0974	0.170058	-403.120421	-403.11145	-403.110506	-403.155254	33.19	
C	 0.7490804753	 0.779052715	 0.4330128121	-0.484199
C	-0.5053660748	 0.0947565407	-0.0706473798	 0.379625
O	-1.5809238879	 0.2346612388	 0.4649504137	-0.301154
C	-0.3470860118	-0.8290085503	-1.2799323226	-0.308317
C	 0.2368992032	-2.1855563087	-0.8757056663	 0.068868
C	 0.4379109214	-3.3017714707	-1.9411407033	-0.292549
C	 1.8983169346	-3.326984801	-1.4966212278	-0.008708
C	 2.5126561887	-2.0001568457	-1.6642770246	-0.242552
N	 1.6925712993	-2.2349074267	-0.4569987132	-0.140213
H	 1.5076144622	 0.0235468139	 0.6678815879	 0.171438
H	 1.1707492985	 1.4213521363	-0.3490649002	 0.129954
H	 0.5196212195	 1.37678749	 1.3159508552	 0.135938
H	-1.3445506988	-0.9937734723	-1.6985364886	 0.12447
H	 0.2747873538	-0.3557391823	-2.048023922	 0.101102
H	-0.3398839468	-2.5711944748	-0.0305226803	 0.104569
H	-0.1215926044	-4.2098877277	-1.7122671094	 0.117405
H	 0.2668615726	-3.0372382408	-2.9893126277	 0.105841
H	 2.4750143783	-4.2178971017	-1.2716258511	 0.100896
H	 3.5660954067	-1.8919603028	-1.426242255	 0.125203
H	 2.1592496105	-1.3349245691	-2.4488555669	 0.11238
