18
gdb 79594	4.77193	1.04557	0.97053	2.8516	78.68	-0.2317	-0.0299	0.2018	1245.3452	0.146201	-401.876585	-401.868348	-401.867404	-401.909184	31.483	
C	 0.0829242483	 1.5169482698	 0.1093896242	-0.416827
C	-0.0130493844	 0.0174339284	-0.0386608106	 0.005194
C	 0.6695696853	-0.6425349112	-1.1698347116	-0.117139
N	 1.2709226306	-0.6830545028	 0.2147386462	-0.157441
C	 1.0889160089	-2.1771870365	 0.194986236	-0.017213
C	-0.2472482433	-2.7531484433	-0.0807902307	-0.353191
C	 0.5203044486	-2.1713662268	-1.251233577	 0.209289
C	 1.0065081827	-3.0110960839	-2.3483531425	 0.067683
O	 0.9905077393	-4.2229333901	-2.3480015561	-0.284652
H	 1.0288041788	 1.8878613267	-0.2939215296	 0.132224
H	-0.740172872	 2.0078233787	-0.4200054261	 0.122599
H	 0.0309854197	 1.8009676869	 1.1648434226	 0.130962
H	-0.9273966655	-0.4096239669	 0.3598608197	 0.092516
H	 1.1668922606	-0.083534831	-1.9581689744	 0.101438
H	 1.9212470401	-2.7707231881	 0.5511833567	 0.130683
H	-0.2457343773	-3.8382244638	-0.1122140288	 0.155024
H	-1.1794992671	-2.3147898414	 0.2533229235	 0.129514
H	 1.4268688967	-2.4445994947	-3.2102609217	 0.069336
