21
gdb 118537	3.10265	0.79429	0.67684	2.3114	82.03	-0.2483	0.0517	0.3	1692.8163	0.178914	-424.17288	-424.161731	-424.160787	-424.209795	39.041	
C	 0.0772310239	 1.361973711	 0.0304256695	-0.228652
O	-0.0201574864	-0.0420110553	-0.0032411273	-0.236252
C	 0.6543780482	-0.615656622	-1.1000796143	-0.06832
C	 0.4678328931	-2.1324935716	-1.0593806775	-0.057268
C	-1.0283570355	-2.4911728891	-1.0674856838	-0.043589
O	-1.2943869716	-3.8596935558	-1.3172257732	-0.42274
C	 1.2287273115	-2.7934869137	-2.2377456057	-0.355469
C	 1.5820470044	-4.1864370996	-1.986445909	 0.298307
C	 1.9034175398	-5.3195081819	-1.742384419	-0.447541
H	 1.1241555017	 1.6960841335	 0.1062957893	 0.105246
H	-0.3654851179	 1.8237764824	-0.8662478501	 0.106052
H	-0.4685063959	 1.7068701594	 0.9117727272	 0.130141
H	 0.2591370389	-0.2108510835	-2.0501177766	 0.086203
H	 1.728554704	-0.363947663	-1.0643807498	 0.088249
H	 0.9135745619	-2.4921623437	-0.1232561179	 0.093137
H	-1.4814641757	-2.1517977803	-0.1268349937	 0.107872
H	-1.5243519418	-1.9441324237	-1.8799782838	 0.099064
H	-0.7059394113	-4.3923572279	-0.7718719564	 0.284417
H	 0.6239221182	-2.7244981934	-3.1502972712	 0.139175
H	 2.1526503057	-2.2331349906	-2.433040583	 0.125822
H	 2.183426125	-6.3259629212	-1.5525106738	 0.196146
