21
gdb 101850	5.10697	0.58759	0.57027	2.1167	75.65	-0.2572	0.0622	0.3194	1949.9992	0.180798	-461.332625	-461.322485	-461.321541	-461.368874	36.508	
O	 0.1448966827	 1.3086690776	-0.3252468854	-0.424576
C	 0.098649763	-0.0844230669	-0.1109023201	-0.062553
C	-1.338729401	-0.5554498323	 0.1251206768	 0.094385
O	-2.1657277686	-0.0632382329	-0.9396575155	-0.439312
C	-1.4563577159	-2.0691258806	 0.291765391	-0.210222
C	-2.8853344139	-2.5381531186	 0.5985057892	-0.222631
C	-2.9964383833	-4.0419625253	 0.631897771	 0.09581
C	-4.1652231873	-4.7583920521	 0.1085454781	-0.180519
O	-2.9465659826	-4.7069126649	-0.6362184787	-0.239319
H	-0.6237691821	 1.5042544298	-0.8774798851	 0.284313
H	 0.5218119197	-0.6407931606	-0.9684801189	 0.072147
H	 0.7228822727	-0.3074704627	 0.7616501272	 0.105804
H	-1.7238456947	-0.0466551804	 1.0175279267	 0.095494
H	-1.9553302098	-0.5750457492	-1.7306951827	 0.284306
H	-1.1084656545	-2.5611389038	-0.6274753096	 0.109223
H	-0.7746676828	-2.3916529969	 1.0897466624	 0.102356
H	-3.2108010498	-2.1316964691	 1.5653692969	 0.102462
H	-3.5668216396	-2.1411076888	-0.1603874167	 0.114238
H	-2.4073694976	-4.5399109428	 1.405588226	 0.089737
H	-4.4290412416	-5.736776737	 0.507945581	 0.114877
H	-4.9944122728	-4.1914627925	-0.3132430936	 0.11398
