14
gdb 45895	2.62598	1.86881	1.33371	2.463	62.82	-0.2711	-0.0398	0.2312	926.6195	0.101543	-473.825741	-473.818628	-473.817684	-473.857706	26.281	
O	 0.0104885565	 0.0085501693	 0.4388380088	-0.294624
C	 0.0266731983	 1.1565333265	 0.1019198129	 0.417085
O	-1.1617200721	 1.8354244667	 0.0095357769	-0.223229
C	-1.4356322348	 3.0007532527	-0.6853244323	 0.156308
N	-0.8874112529	 3.5452843804	-1.670330851	-0.222562
C	 0.3326108866	 3.071391739	-2.2917166383	-0.228805
C	 1.472383717	 2.775896135	-1.3264866111	 0.044658
O	 1.3709717464	 3.2959050744	-0.0097953178	-0.223279
C	 1.3096805808	 1.8791338274	-0.165561232	-0.09103
H	-2.3552319874	 3.4093071891	-0.273427547	 0.145177
H	 0.1364859819	 2.1719770373	-2.8940166242	 0.135555
H	 0.6639575329	 3.8448049407	-2.9917760925	 0.132327
H	 2.4708686532	 2.832983703	-1.7612805929	 0.117975
H	 2.1649422337	 1.3219863084	 0.2083847103	 0.134444
