18
gdb 58135	1.8101	1.45202	1.33985	4.4177	72.25	-0.2757	-0.0513	0.2244	1130.2641	0.143283	-439.102141	-439.091682	-439.090738	-439.13742	37.042	
C	 0.1470938249	 1.4074276599	-0.2234538935	-0.436032
C	-0.0009527424	-0.0855729627	 0.1012125404	 0.001972
C	 0.6503453272	-0.4307124856	 1.4461933913	-0.41814
C	-1.5041600588	-0.5247682873	 0.0345217479	 0.122726
O	-2.1200159114	-0.1537025432	-1.1876778337	-0.456171
C	-1.5620747679	-2.0665296044	 0.0161169614	 0.155042
O	-1.5027066023	-2.7690462982	 0.9835136763	-0.230193
C	-2.2605879388	 0.0132954365	 1.1807198672	 0.277058
N	-2.8566074184	 0.4867398414	 2.0500249255	-0.339208
H	 1.2021609692	 1.6917825041	-0.1794198194	 0.133326
H	-0.2085821335	 1.6477941989	-1.2296606422	 0.118563
H	-0.3932551199	 2.0256245302	 0.5021326268	 0.141453
H	 0.492923782	-0.6581253483	-0.6954503766	 0.095773
H	 0.2191950268	 0.1686596479	 2.254023654	 0.144096
H	 0.524798685	-1.4834168588	 1.7073898632	 0.148904
H	 1.7213903218	-0.2134071967	 1.400630739	 0.121065
H	-2.199187184	 0.8054201532	-1.2175072772	 0.302077
H	-1.6344229495	-2.4552099769	-1.0211330202	 0.11769
