18
gdb 23202	2.403	1.4226	0.99429	0.9039	77.17	-0.2306	0.0121	0.2428	1207.0978	0.145744	-438.99675	-438.987792	-438.986848	-439.030524	33.265	
C	-0.2820121846	 1.3576753644	-0.0489618416	-0.264128
O	 0.1608191217	 0.0138481296	 0.1105435205	-0.275845
C	 0.7659125609	-0.4946469945	-1.0072507584	 0.371145
C	-0.0302832592	-1.0477984984	-2.1808557047	-0.33993
C	 0.8997202363	-1.9642610943	-1.4351996977	-0.148189
C	 2.348409551	-1.7146881707	-1.9014146459	-0.327613
C	 2.1831658937	-0.2722610064	-1.4265219167	 0.367329
N	 2.9438507877	 0.7215727902	-1.2345928522	-0.272365
O	 4.2453158186	 0.4600403819	-1.7116324817	-0.39428
H	 0.5613254672	 2.0295188403	-0.2468865058	 0.139073
H	-1.0084200115	 1.4406183257	-0.8691261433	 0.110149
H	-0.7627507225	 1.6425845156	 0.8890557969	 0.127332
H	-1.0825189613	-1.173839453	-1.9451825235	 0.123994
H	 0.1789413118	-0.7556727494	-3.2067948398	 0.114623
H	 0.5537698709	-2.8408823662	-0.9045556228	 0.109612
H	 3.107067946	-2.2359895295	-1.3110580263	 0.134362
H	 2.5535795807	-1.8698443291	-2.9646753758	 0.11898
H	 4.7116232825	 1.2692621539	-1.4768298312	 0.305752
