17
gdb 30119	3.90511	1.15983	1.08033	1.2988	76.37	-0.2251	-0.0049	0.2201	1158.7058	0.137243	-418.00519	-417.997405	-417.996461	-418.038027	29.05	
C	-0.5555762943	 1.2031991849	-0.0176672246	-0.327031
N	 0.0560763306	-0.1208398685	 0.0491764894	-0.087979
C	 1.4576726746	-0.2327835748	-0.3068442535	-0.244548
C	 1.0365271175	-0.417004971	 1.1151414353	-0.120093
C	 1.4361106766	 0.5726479932	 2.1272331511	 0.407212
N	 1.9047207768	 1.7768897824	 1.984913502	-0.313839
C	 2.0765856032	 2.2434968645	 3.2805149227	-0.112957
C	 1.7053465921	 1.2779423891	 4.1518866061	-0.046345
O	 1.287274118	 0.1982026858	 3.4270830617	-0.176009
H	 0.118650684	 2.0250708384	 0.2552634678	 0.138905
H	-0.9063414697	 1.3580666172	-1.0426158843	 0.123932
H	-1.4259820308	 1.2269972451	 0.6456993356	 0.122078
H	 1.7368171515	-1.1010202952	-0.8985437865	 0.118447
H	 2.0084765559	 0.6808139749	-0.523279362	 0.135952
H	 0.9389942233	-1.4188199076	 1.523297693	 0.108215
H	 2.4596835989	 3.230806771	 3.4835089502	 0.126499
H	 1.6782465019	 1.1808165707	 5.223193716	 0.147561
