16
gdb 125065	3.11105	1.30305	0.98932	3.2481	73.17	-0.2394	-0.0399	0.1995	1174.4377	0.124511	-434.026349	-434.018252	-434.017307	-434.059836	29.103	
C	 0.2011721282	 1.5336645847	 0.312808698	-0.495911
C	 0.0045225888	 0.102703065	-0.0333998631	 0.308234
C	-1.0934964779	-0.6735575484	-0.2690057693	 0.20292
N	-0.6212669901	-1.9419457083	-0.5369813945	-0.197963
N	 0.6348193326	-1.977997457	-0.4849933093	-0.011163
O	 1.090792088	-0.6700926453	-0.163555937	-0.209646
C	-2.5326499563	-0.3657130726	-0.2512405501	-0.109403
C	-3.4607722108	-1.0873865594	-1.1663536708	-0.236471
N	-3.4869104434	-1.3616797867	 0.2752019801	-0.318248
H	 0.7810855087	 1.6330112897	 1.2356570812	 0.160267
H	 0.7470868832	 2.0564449773	-0.4793688421	 0.159459
H	-0.76210544	 2.0277715441	 0.4522471259	 0.150006
H	-2.7701017169	 0.6576424668	 0.0268029913	 0.091855
H	-4.336185293	-0.574356554	-1.5544912716	 0.123331
H	-3.0222600993	-1.8284651548	-1.8283275219	 0.134722
H	-2.9829680717	-2.2275553608	 0.4596544533	 0.248008
