19
gdb 63150	2.33636	1.65392	1.33483	3.6909	75.29	-0.2295	-0.0323	0.1973	1052.4401	0.157881	-423.006933	-422.998161	-422.997217	-423.04033	32.797	
C	 0.1446180696	 1.5427917474	 0.0443835896	-0.449971
C	 0.0347812018	 0.0215729662	-0.0010172562	 0.166365
C	-1.4169928773	-0.4376268224	 0.2166959963	-0.433547
C	 0.6916099244	-0.7690397575	-1.1890024715	-0.124012
C	 2.030909454	-0.2423832842	-1.7204087822	-0.09586
O	 2.7691619508	-0.8890107461	-0.6529606182	-0.286748
C	 1.5811959026	-1.574364276	-0.186149823	-0.019416
C	 0.957953791	-0.7621733334	 0.9699180708	 0.392926
O	 1.1183190607	-0.7290628759	 2.1544814165	-0.304484
H	 1.1760858391	 1.8862797257	-0.0694189178	 0.129901
H	-0.4614833319	 2.0048649755	-0.7429020705	 0.11702
H	-0.2166945723	 1.9113766912	 1.0094685849	 0.136074
H	-2.0665596255	-0.0196400097	-0.560114269	 0.120945
H	-1.5096959354	-1.5285175946	 0.18137801	 0.120702
H	-1.7809250242	-0.1022796324	 1.1921699121	 0.136172
H	 0.0040874613	-1.2301477364	-1.895813964	 0.083328
H	 2.3137125626	-0.6600360162	-2.6947751009	 0.107531
H	 2.1868331704	 0.8410694586	-1.7384367451	 0.110365
H	 1.7019581981	-2.6586359896	-0.1195321017	 0.09271
