11
gdb 20309	6.18431	1.66312	1.31065	2.2628	68.44	-0.2439	-0.0796	0.1643	845.1078	0.072759	-356.410498	-356.404288	-356.403344	-356.440909	22.763	
C	 0.0245892749	-1.1698591092	-0.0037664905	-0.343884
C	-0.0017959254	 0.0316947685	 0.0030101689	 0.300577
C	-0.0342134782	 1.4601083802	 0.0110739904	 0.201941
N	-1.2398959657	 2.0585877067	 0.0302647372	-0.260871
C	-1.201603455	 3.381092033	 0.0368257658	-0.014877
C	 0.0157189331	 4.0617316191	 0.0243221506	 0.023118
N	 1.1756251356	 3.4073184944	 0.005443177	-0.170269
N	 1.159163666	 2.0826835674	-0.0014198243	-0.218237
H	 0.0498287111	-2.2321101512	-0.0097781765	 0.210248
H	-2.1513574162	 3.9107868137	 0.0522596614	 0.135891
H	 0.0749939999	 5.1450027775	 0.02932953	 0.136361
