19
gdb 90460	2.40486	1.53951	1.24565	3.0843	78.48	-0.2493	0.009	0.2583	1088.3328	0.161097	-382.071179	-382.063025	-382.062081	-382.104226	31.233	
C	 0.0511864621	 1.568704808	 0.0214689697	-0.413387
C	 0.0571955344	 0.0417032572	-0.0114609556	 0.053858
C	 0.8700436092	-0.5764674955	-1.1798652036	-0.274863
C	 1.3519511337	-1.9098220599	-0.6220250623	-0.031264
C	 2.5649196293	-1.9281384643	 0.2612188211	-0.163274
C	 3.4044525106	-0.7628181327	 0.3476364947	 0.305391
N	 4.0717849051	 0.1792977076	 0.4318131278	-0.352407
N	 1.1990555832	-1.9388776105	 0.8392461184	-0.107967
C	 0.6660659875	-0.6149541579	 1.2510532655	-0.198161
H	 1.0715705452	 1.959844677	 0.0975714508	 0.1365
H	-0.4029374336	 1.9829793255	-0.8844249858	 0.117668
H	-0.5190159149	 1.9443079237	 0.8775335775	 0.118428
H	-0.9761430087	-0.315247141	-0.1023669638	 0.083545
H	 0.2610107955	-0.7192159329	-2.0754338482	 0.11017
H	 1.7096444888	 0.0706106669	-1.4555437759	 0.13116
H	 1.1083518716	-2.8283095552	-1.1488853667	 0.106214
H	 3.1037781768	-2.8611534722	 0.4035792138	 0.135058
H	 1.4560623582	 0.0088922924	 1.6842166044	 0.128068
H	-0.0846621041	-0.7830143963	 2.0273964383	 0.115263
