19
gdb 28011	4.81619	0.99921	0.87277	3.6358	82.61	-0.2115	0.0331	0.2446	1362.6969	0.160701	-382.098844	-382.090403	-382.089459	-382.132545	31.44	
C	 0.5097352306	 1.3479987643	 0.1304792404	-0.484493
C	-0.0315772508	-0.0386282768	-0.0013209137	 0.276382
C	 0.2527227991	-0.9824704805	-0.9541391786	-0.207289
N	-0.491243349	-2.1015410667	-0.6247083517	 0.014106
C	-1.1947406208	-1.7701828005	 0.4983808283	-0.003741
N	-0.9408778187	-0.5489086187	 0.9047752414	-0.323373
C	-0.5966001207	-3.3118578752	-1.3834025893	 0.022155
C	 0.6317901484	-4.1603510459	-1.5860357424	-0.268367
C	-0.4704539595	-4.6327270127	-0.6720630941	-0.274421
H	 1.0365508311	 1.4776863734	 1.0821987911	 0.130722
H	 1.2074370353	 1.5777003489	-0.6796465674	 0.113257
H	-0.2967959178	 2.0889073532	 0.107645298	 0.131428
H	 0.90157128	-0.9756476073	-1.8144848563	 0.121516
H	-1.8710836048	-2.4696985603	 0.9670418634	 0.124401
H	-1.3014198266	-3.2586037866	-2.2088666492	 0.112975
H	 0.757558378	-4.6429793768	-2.5481411848	 0.123603
H	 1.5498518317	-3.8178005443	-1.1235361919	 0.132894
H	-0.2778894907	-4.6080882472	 0.3937895926	 0.13322
H	-1.1117468149	-5.4427066303	-0.9991060159	 0.125025
