27
gdb 101674	2.87159	0.69771	0.6483	1.3006	93.2	-0.2615	0.0715	0.333	1954.3558	0.249306	-390.708611	-390.69641	-390.695466	-390.74697	44.114	
C	 0.4115272936	 1.8724445216	-2.1160744888	-0.38813
C	 0.0960293229	 0.3773840663	-2.2339022408	-0.166616
C	 0.7993545221	-0.5120568279	-1.1896618646	 0.052578
C	 0.3148345809	-0.2101170223	 0.2359814053	-0.402069
C	 0.6175238717	-2.0101256485	-1.5031850422	-0.213249
C	 1.397040779	-2.5268751496	-2.7205859821	 0.125877
O	 2.7932463622	-2.2436161584	-2.603393775	-0.426442
C	 1.1523252163	-4.0221977902	-2.9669701652	-0.183241
C	 1.8670705907	-4.5537421155	-4.2113770843	-0.381918
H	 0.0592808462	 2.2951858303	-1.1703649179	 0.115624
H	 1.4906102157	 2.0520967221	-2.1793699009	 0.116574
H	-0.0659295414	 2.4369407982	-2.9233537499	 0.109337
H	-0.9900530127	 0.2235518245	-2.1578645944	 0.086908
H	 0.3791164741	 0.0453470804	-3.2393359295	 0.096738
H	 1.8757693024	-0.3017817831	-1.2407457535	 0.080604
H	-0.7582098061	-0.4152035707	 0.3381438499	 0.10833
H	 0.8402400147	-0.8305975203	 0.97001926	 0.104957
H	 0.480418945	 0.8349589424	 0.5125852634	 0.113429
H	 0.9353329829	-2.5987572429	-0.6289481044	 0.074539
H	-0.4497627748	-2.2324590991	-1.6411647752	 0.089867
H	 1.0909829436	-1.9752931225	-3.6182157373	 0.087566
H	 3.1145001723	-2.7016008362	-1.8178982697	 0.274393
H	 1.483050993	-4.5796195838	-2.0778206205	 0.082504
H	 0.0718052976	-4.1952653256	-3.0478695504	 0.094833
H	 1.4851271046	-4.0734328553	-5.1191211297	 0.113031
H	 2.9390085978	-4.3473415541	-4.1552189799	 0.126811
H	 1.7263809956	-5.63331504	-4.3207342823	 0.107165
