17
gdb 30185	4.69632	1.25673	1.01947	1.6979	74.87	-0.2122	0.0024	0.2146	1139.9854	0.138368	-418.015614	-418.008248	-418.007303	-418.047494	27.905	
C	-0.0652117054	 1.4260585546	 0.0774613122	-0.315666
N	-0.077773823	-0.0181104464	 0.1509797429	-0.080092
C	-1.4321182635	-0.6265718402	 0.1277717864	-0.292392
C	-1.1605517402	-1.8558819811	 0.9145431846	 0.30233
C	 0.0333357399	-1.8615198333	 1.5246130039	 0.240955
C	 0.7712702895	-0.5977489016	 1.2267378301	-0.289451
N	 0.1793576977	-3.0257596034	 2.2612665653	-0.339331
C	-0.9389797966	-3.6465011125	 2.0446756621	 0.033343
O	-1.8265371139	-2.9957864813	 1.2263590732	-0.19547
H	 0.9658569542	 1.7822671757	-0.0155478281	 0.124223
H	-0.6114437121	 1.7592033096	-0.811343847	 0.121454
H	-0.5169766525	 1.9205691601	 0.9593689258	 0.093419
H	-2.1959013204	 0.0120067403	 0.6101033735	 0.101898
H	-1.7605121042	-0.8017825984	-0.9052110609	 0.122907
H	 1.7960830402	-0.7442369479	 0.8636729586	 0.122076
H	 0.8289903657	 0.0581362901	 2.1140427652	 0.100187
H	-1.2570360653	-4.6061219244	 2.4198175322	 0.149611
