12
gdb 123535	4.25769	1.84043	1.28498	1.1059	68.77	-0.2844	-0.0888	0.1956	863.9361	0.082771	-427.873143	-427.867725	-427.866781	-427.90298	21.051	
C	 0.0922912124	 1.283753995	 0.0087277792	 0.041813
N	 1.3490712549	 1.7537889536	-0.0009041822	-0.228748
N	 2.0580035768	 0.6246311355	-0.0143250259	 0.077546
N	 3.3895955486	 0.5794028139	-0.027651588	-0.196128
C	 3.8599413663	-0.6488504287	-0.0392879944	 0.108013
N	 3.1622549298	-1.8153090715	-0.0390898283	-0.261644
C	 1.8513709468	-1.7299703019	-0.0257298365	-0.052033
C	 1.2114951968	-0.4759946038	-0.0122987779	 0.387748
N	-0.0518958839	-0.0558959482	 0.0024846238	-0.337391
H	-0.7459835788	 1.9647427928	 0.0208473765	 0.14748
H	 4.9412630893	-0.7245593716	-0.0503156728	 0.153683
H	 1.2631623509	-2.6434747451	-0.0251809536	 0.159661
