16
gdb 124201	4.29311	0.80791	0.79658	0.977	79.07	-0.2575	-0.003	0.2545	1502.7653	0.125058	-396.906428	-396.897623	-396.896679	-396.943571	29.652	
C	 0.0122706931	 1.5006803226	-0.0013044702	-0.496601
C	-0.001855813	 0.0460743319	 0.0285174648	 0.045324
C	-0.0194754886	-1.1562998931	 0.051578386	 0.111649
C	-0.0271061704	-2.6147677723	 0.0805554838	-0.299737
N	-1.3687802868	-3.1895526489	 0.0222243083	 0.164203
N	-2.0850704067	-3.4145249453	 1.1173237099	-0.221851
C	-3.2445621015	-3.871316107	 0.6403722087	-0.057846
C	-3.1729969753	-3.8965251593	-0.7590723458	-0.057852
N	-1.9700726235	-3.4550458177	-1.1314113161	-0.221937
H	 0.8328713791	 1.8756829613	-0.6223796134	 0.152381
H	-0.9230595372	 1.8923510931	-0.4153693584	 0.156158
H	 0.1339421513	 1.9193706585	 1.0033988041	 0.152447
H	 0.5228952935	-3.0251386812	-0.7707789738	 0.161804
H	 0.4303402733	-2.9895433862	 1.0002990375	 0.161871
H	-4.0438566239	-4.1580499057	 1.304736833	 0.125002
H	-3.9009066135	-4.2084166408	-1.4907447586	 0.124987
