15
gdb 50030	3.09959	1.28609	1.05952	5.5685	68.94	-0.2551	-0.0091	0.246	1113.6811	0.112068	-453.949293	-453.941021	-453.940077	-453.98275	29.296	
O	 0.1789326901	 0.2220417884	 0.6496686982	-0.272997
C	 0.130653716	 1.3413763167	 0.2139802037	 0.155039
N	 1.1399496164	 1.9256244498	-0.5552343272	-0.123253
C	 2.5480063519	 1.8118533958	-0.2422371609	-0.296831
C	 1.8396723714	 3.1305518686	-0.2191836203	 0.166671
C	 1.9973000932	 4.408984078	-1.066733653	-0.234329
N	 1.7977467365	 5.1429587672	 0.1919138633	-0.34694
C	 1.6141501169	 4.041680804	 0.9970181689	 0.400295
O	 1.3695074383	 3.8875141712	 2.1616215446	-0.360323
H	-0.7483818015	 2.0043625008	 0.3084661117	 0.097334
H	 2.8067087897	 1.3666173153	 0.7153413094	 0.158628
H	 3.204510963	 1.5720328284	-1.0738396602	 0.135546
H	 2.9808726478	 4.5535347427	-1.5235708296	 0.126452
H	 1.208250216	 4.5615466406	-1.8087590382	 0.131559
H	 1.8150825442	 6.1281571625	 0.4041464096	 0.263149
