18
gdb 99045	3.65406	0.78405	0.70758	3.9062	76.09	-0.2584	0.013	0.2714	1599.1202	0.144601	-439.080302	-439.069901	-439.068957	-439.117068	36.632	
C	 0.0209636237	 1.6348680974	 0.0582483083	-0.385661
C	 0.0342551173	 0.0981216036	-0.0388110452	-0.117851
N	 0.6885119336	-0.3651325895	-1.2668708985	-0.324526
C	 0.001971423	-0.5762886574	-2.4131900011	 0.401947
O	-1.1998869289	-0.3759867943	-2.5270212477	-0.396444
C	 0.8039302795	-1.0974235169	-3.610755345	-0.144926
O	-0.03550201	-1.2399293966	-4.7165645357	-0.41842
C	 0.6787475062	-0.5165031259	 1.1205782873	 0.293006
C	 1.2360508269	-0.9964725612	 2.0705984362	-0.43659
H	 1.0403228703	 2.0292175651	 0.0892788457	 0.123191
H	-0.4977688337	 2.04640152	-0.8107401493	 0.142785
H	-0.5005430869	 1.951215359	 0.9654325217	 0.133292
H	-1.0022615725	-0.2493338359	-0.1090942409	 0.149446
H	 1.676839048	-0.5594053157	-1.2309049278	 0.257748
H	 1.6257047103	-0.3949456912	-3.82368982	 0.109804
H	 1.2675656645	-2.0582963819	-3.3333984491	 0.11184
H	-0.9136329407	-0.9801771534	-4.388900571	 0.295426
H	 1.7093518493	-1.4313651951	 2.9163470322	 0.205934
