18
gdb 111087	3.65958	1.08947	1.06469	4.2389	72.06	-0.2357	0.022	0.2577	1184.2961	0.149335	-439.082372	-439.074463	-439.073519	-439.115053	30.596	
O	-0.1521028279	 1.4174659475	-0.172755822	-0.421459
C	-0.0067287158	 0.0433312125	 0.1647530316	-0.134516
C	-1.3760459684	-0.592031659	 0.0127163278	 0.047367
C	-1.9957193954	-0.7223791602	-1.4192391409	-0.015091
C	-1.1299241743	-1.9920115154	-1.6197372918	-0.230898
C	-1.4515479773	-2.1679150909	-0.0986309552	-0.184323
C	-2.9854191501	-2.2929256984	-0.1433320356	 0.410125
O	-3.7374176523	-2.958284563	 0.5217501995	-0.374236
N	-3.3014549728	-1.3652587873	-1.1411645884	-0.313129
H	 0.6862491442	 1.8594143442	-0.0089518524	 0.290426
H	 0.7451676646	-0.442424293	-0.4731534027	 0.090701
H	 0.3266804717	-0.079181166	 1.2075390999	 0.095733
H	-2.0523093261	-0.1407594049	 0.746153635	 0.086122
H	-2.043873715	 0.0981215397	-2.1313193367	 0.091906
H	-1.5175099527	-2.7426430486	-2.3107299383	 0.114137
H	-0.0787321624	-1.7901233571	-1.8212233649	 0.110681
H	-0.927898276	-2.8506091138	 0.5664585364	 0.087068
H	-4.1442471539	-0.8169755963	-1.0437832715	 0.249387
