17
gdb 85551	2.54873	1.71834	1.28843	4.1834	67.76	-0.2547	0.0141	0.2688	998.5683	0.136814	-458.982982	-458.975341	-458.974397	-459.015147	29.801	
O	-0.1147238524	 1.4891537126	 0.1020388081	-0.425229
C	-0.0168351011	 0.0757304243	-0.000324213	 0.087792
C	 0.735006536	-0.5156290338	 1.2009356304	-0.381223
C	 0.0180395508	-0.2116695863	 2.508456901	 0.426228
O	 0.5782913798	 0.1044176741	 3.5203311629	-0.323702
O	-1.3385907328	-0.2937956807	 2.4968761071	-0.220907
C	-2.030819496	-0.7469205526	 1.3500107373	 0.101196
C	-2.6154056387	 0.2827302099	 0.433483132	-0.299245
C	-1.4158311775	-0.5284111011	-0.0036379669	-0.070187
H	 0.7678910564	 1.843345173	 0.2531416811	 0.290684
H	 0.4990346474	-0.2012221977	-0.9305063012	 0.078713
H	 0.8111281689	-1.6031660326	 1.0787525416	 0.132463
H	 1.7518943349	-0.1257369387	 1.2959189097	 0.124904
H	-2.5802660734	-1.6583363185	 1.5608886264	 0.108226
H	-3.5731569493	 0.0746052264	-0.029453675	 0.118164
H	-2.4287867365	 1.319456571	 0.6836395624	 0.154106
H	-1.5736134665	-1.3073595194	-0.7414319139	 0.098015
