19
gdb 41954	2.33676	2.01575	1.67952	1.3443	69.55	-0.2328	0.078	0.3108	915.2791	0.16331	-460.166607	-460.159777	-460.158833	-460.197495	28.127	
C	-0.0240364951	 1.3965945902	-0.1590328976	-0.077278
C	 1.396763598	 1.9612770547	-0.0200372083	-0.22057
C	 2.1260193179	 1.3314391759	 1.1779323375	 0.071225
C	 1.5835155945	 1.7170526712	 2.5553068175	-0.085713
O	 0.2428593905	 1.2797750042	 2.7269741969	-0.254205
C	 0.0988256728	-0.1077225948	 2.458286654	-0.116745
C	 0.6928837822	-0.501726893	 1.0986528781	 0.183103
O	-0.0371494728	-0.025844338	-0.0054673625	-0.264117
O	 2.0484566105	-0.0959152847	 1.0466164606	-0.268442
H	-0.6967127425	 1.8635619764	 0.5682914064	 0.115733
H	-0.4176531209	 1.5844839181	-1.1620718402	 0.105603
H	 1.9728841967	 1.7182303311	-0.9186934886	 0.113413
H	 1.3607238056	 3.0525114646	 0.0712305584	 0.098898
H	 3.1920849399	 1.5784720786	 1.1397291402	 0.084606
H	 2.2323365415	 1.268914875	 3.3253316514	 0.097174
H	 1.5774105353	 2.8028146948	 2.6929694443	 0.108422
H	 0.6006925827	-0.70620341	 3.2364747994	 0.096335
H	-0.9727910241	-0.3222622002	 2.4812027782	 0.119071
H	 0.6941244671	-1.5914655842	 1.0001930047	 0.093486
