15
gdb 127526	3.24981	1.47159	1.01932	1.6938	74.51	-0.2059	-0.0762	0.1297	1098.3251	0.113777	-450.133414	-450.12551	-450.124566	-450.165934	29.508	
C	-0.2878350617	 1.3527281045	-0.0273838129	-0.308582
N	 0.0387233634	-0.0622970942	-0.0055837447	-0.031261
N	 0.2194088309	-0.657223654	-1.2082020322	-0.271689
C	 0.5102359555	-1.9168386994	-1.1900332986	 0.475078
O	 0.6945312643	-2.5289424466	-2.3751524974	-0.401381
N	 0.6534928549	-2.70941885	-0.0732368583	-0.320027
C	 0.4769365891	-2.1220601704	 1.0615711532	-0.037978
C	 0.1443031853	-0.7079413606	 1.2166638007	 0.355845
N	-0.0458015846	-0.0552547907	 2.3116053218	-0.571793
H	 0.4670704645	 1.9175935395	 0.527811869	 0.152302
H	-0.3225472284	 1.6660171233	-1.0688941533	 0.149065
H	-1.2502012048	 1.5203915231	 0.4655008392	 0.152267
H	 0.8997916654	-3.4504533911	-2.174249707	 0.308874
H	 0.5810457619	-2.7133962113	 1.9706802382	 0.136493
H	 0.0688883046	-0.6747292421	 3.1119893524	 0.212787
