18
gdb 13348	5.24981	1.08857	0.95631	3.0372	68.35	-0.2495	-0.0256	0.2238	1193.1387	0.153582	-384.952872	-384.944557	-384.943613	-384.987558	28.633	
O	-0.2171779233	-0.0431421515	 0.0176875112	-0.237377
C	-0.1004718812	 1.1526496931	-0.050661361	 0.162602
C	 1.215145686	 1.90020683	-0.054951227	-0.301508
C	 1.3403373334	 2.8561189204	-1.2475226521	-0.001333
C	 2.6161911843	 3.7173918456	-1.2493946965	-0.256255
C	 2.7817495591	 4.0823489894	-2.736521916	-0.068149
O	 2.0025933218	 3.1467534318	-3.4880298041	-0.257557
C	 1.4622961175	 2.168916661	-2.6149337064	-0.070194
H	-0.998667318	 1.8125576056	-0.1165160777	 0.072049
H	 1.2565348256	 2.4839316578	 0.8762931564	 0.122529
H	 2.033262174	 1.1731681967	-0.0347384383	 0.122398
H	 0.4646298171	 3.5183254168	-1.2726467109	 0.085616
H	 2.5413355861	 4.596358118	-0.6043897402	 0.107865
H	 3.4656435552	 3.1199810508	-0.8999320305	 0.109026
H	 2.4087122988	 5.0907216612	-2.9554248457	 0.103383
H	 3.8302711965	 4.0359447617	-3.0568309119	 0.101765
H	 2.1255388211	 1.2897891454	-2.5406180637	 0.092244
H	 0.505592586	 1.8341314562	-3.0287255155	 0.112894
