18
gdb 85450	2.6217	1.47315	1.11393	4.8105	71.76	-0.2554	0.0134	0.2688	1116.3951	0.148082	-439.109304	-439.101161	-439.100217	-439.142178	31.085	
C	 0.1348240739	 1.6877390173	-0.059994256	-0.393037
C	 0.0468437004	 0.1732704889	 0.0961933317	 0.04156
O	 0.6514291927	-0.4592779407	-1.0507743567	-0.229159
C	 1.8669946316	-1.0062109218	-0.7523439347	 0.431221
O	 2.5460883733	-1.5343589731	-1.5813159774	-0.331555
C	 2.1535987089	-0.8110161629	 0.7325376696	-0.437545
C	 0.8106297481	-0.3985604903	 1.2939833492	 0.308945
C	 0.5430494058	 0.0181415402	 2.6863132662	-0.298434
N	 0.1673885907	-1.3338737139	 2.2273181772	-0.347864
H	 1.1760404591	 2.0240966099	-0.0394022313	 0.127364
H	-0.3050032453	 1.9920329812	-1.0133161802	 0.138599
H	-0.4053775756	 2.1901087841	 0.7476309411	 0.122547
H	-1.0026544812	-0.142637171	 0.1105485617	 0.095558
H	 2.535356522	-1.7304516888	 1.1772280143	 0.156772
H	 2.9190387912	-0.0341781456	 0.839523054	 0.140537
H	 1.3532972754	 0.0485367118	 3.4098318328	 0.126867
H	-0.244655135	 0.7464057835	 2.8654765079	 0.115936
H	-0.835407016	-1.3759461287	 2.0572161105	 0.231687
