20
gdb 97003	3.48534	1.21706	1.06538	2.7212	81.56	-0.2397	0.0339	0.2736	1213.1025	0.172063	-403.161275	-403.152821	-403.151877	-403.195266	31.479	
C	-0.0612606109	 1.4393075719	-0.0422228991	-0.327427
N	-0.0140874224	-0.0130923832	 0.0195123956	-0.320209
C	-1.088251881	-0.6681245616	-0.0093588039	 0.41987
C	-1.1969170845	-2.1815835762	 0.0317760015	-0.332794
C	-2.6557372788	-2.4258868896	 0.3970174364	-0.029574
C	-3.0733428674	-2.2338280538	 1.8891989666	-0.237945
C	-4.0123603766	-1.0663421984	 1.4661091672	-0.230749
C	-3.376608315	-1.0881750631	 0.0580545574	 0.103533
O	-2.3432260599	-0.1111028329	-0.0984776154	-0.2607
H	 0.7487093502	 1.8475475828	 0.5703257524	 0.117105
H	 0.1158313714	 1.7743148582	-1.0723657481	 0.121995
H	-1.0139993617	 1.8670565071	 0.2916668281	 0.11749
H	-0.9581510644	-2.5841776008	-0.9593028889	 0.126308
H	-0.4780688946	-2.6006369504	 0.738377661	 0.132425
H	-3.0851091529	-3.314053748	-0.0669730192	 0.078096
H	-3.5559526646	-3.0913799518	 2.3616442711	 0.105441
H	-2.2413015072	-1.9165379008	 2.5235917825	 0.113425
H	-5.0666159243	-1.3545893374	 1.4432170827	 0.106142
H	-3.9151108558	-0.1209623082	 2.0033179156	 0.114637
H	-4.0400778397	-1.0229612537	-0.8078059436	 0.08293
