17
gdb 56826	2.27661	1.41006	1.04561	1.7517	68.53	-0.2579	0.0176	0.2755	1157.9906	0.13552	-455.117485	-455.108227	-455.107283	-455.151642	34.22	
N	 0.108552369	 1.5234508421	 0.0352758334	-0.49886
C	 0.0569227573	 0.0618304232	 0.0389804425	-0.13278
C	 0.6558777249	-0.5534187052	-1.1720567369	 0.252007
N	 1.1434756012	-1.0403339888	-2.1024921502	-0.347549
C	 0.7233339476	-0.4892827497	 1.2908487107	-0.09183
C	-0.1360853919	-1.2021470884	 2.3266338033	 0.087667
O	-1.4818069493	-1.4070374512	 2.0446582761	-0.419937
C	 0.8571026549	-1.9874936559	 1.5164311925	 0.018428
O	 0.2556476292	-2.8801809407	 0.6238087041	-0.432486
H	 1.0640030886	 1.8403539157	-0.103488171	 0.240613
H	-0.4356469172	 1.8907633638	-0.7394028353	 0.245558
H	-0.9977258843	-0.2343279182	 0.0658953916	 0.147605
H	 1.5433124284	 0.1193136802	 1.6599345338	 0.101017
H	 0.0578051503	-1.0082982185	 3.3771143665	 0.110212
H	-1.5262134528	-2.2048686023	 1.4978086032	 0.303563
H	 1.767283441	-2.352751526	 1.9879646726	 0.103149
H	 0.672460513	-2.79930067	-0.2434449668	 0.313623
