18
gdb 16887	3.93198	1.83615	1.43618	1.0932	73.93	-0.2152	0.0209	0.2361	914.0588	0.154761	-347.795453	-347.7882	-347.787256	-347.82662	28.421	
C	 0.0037413081	 1.5131430993	-0.0526652017	-0.47752
C	-0.0102123766	 0.0144491838	 0.0333851521	 0.266794
C	-1.1168542453	-0.7268587554	-0.0725051964	-0.140727
C	-1.0783284075	-2.2058212226	-0.0152647145	-0.112219
C	-0.1715811239	-2.9496905931	-1.0081697559	-0.336419
C	 0.2412876994	-2.7859384303	 0.4245973273	 0.136103
O	 1.2593081061	-1.9350538341	 0.8535655994	-0.256843
C	 1.3286458224	-0.6585026899	 0.2318672032	-0.165277
H	 0.6636370839	 1.8647725199	-0.8573493798	 0.122407
H	-0.9970016951	 1.9101084395	-0.2435458916	 0.1228
H	 0.3798023998	 1.9626184487	 0.875701183	 0.125289
H	-2.0835015226	-0.2468141332	-0.204551846	 0.081272
H	-1.9916136598	-2.7046814563	 0.2913321381	 0.086358
H	-0.4715736229	-3.9392930619	-1.336558075	 0.112918
H	 0.3044624558	-2.3463105229	-1.7726496937	 0.121087
H	 0.2343262338	-3.666614661	 1.0572563035	 0.102858
H	 1.8647377759	-0.7319316744	-0.7313212358	 0.09909
H	 1.9619294785	-0.0531620462	 0.8909616438	 0.112031
