18
gdb 38661	3.01678	1.84008	1.49863	1.7871	73.3	-0.2456	0.0238	0.2694	918.0892	0.151825	-401.965532	-401.95899	-401.958046	-401.996461	26.771	
C	 0.0770596118	 1.5497661893	 0.4087074913	-0.289815
C	 1.3007974968	 0.7979056062	-0.0319270593	-0.032433
C	 2.2531008419	 0.3029094352	 1.0503302809	-0.240303
C	 1.4204815499	-0.6094524528	 1.9869394951	-0.01798
N	 1.0378203566	-0.0023274821	 3.2760607799	-0.272572
C	-0.2272892344	-0.0786818641	 3.3342038309	 0.108484
O	-0.9289982065	-0.6125428523	 2.3089891422	-0.224341
C	 0.0593723167	-0.8824004915	 1.2704510164	 0.061589
C	-0.0281230709	 0.0738905937	 0.1004414003	-0.048354
H	 0.0095925644	 1.8789706976	 1.4394688374	 0.13003
H	-0.3840674066	 2.2255471793	-0.3030805736	 0.113059
H	 1.7094248182	 1.0091660494	-1.0138461774	 0.085607
H	 3.061893237	-0.275536417	 0.5918306269	 0.100501
H	 2.7153887104	 1.114044903	 1.6200967727	 0.120398
H	 1.9738127331	-1.5283972351	 2.2044940818	 0.091782
H	-0.8375780328	 0.2594858986	 4.1652048929	 0.136728
H	-0.0900366061	-1.9180530825	 0.9603652541	 0.091017
H	-0.5962742495	-0.230214515	-0.7707936524	 0.086603
