16
gdb 93650	2.0608	1.69091	1.36729	4.0963	63.68	-0.2775	0.009	0.2865	1004.6302	0.124389	-475.023561	-475.014911	-475.013967	-475.057626	31.1	
O	-0.4251347014	 1.447068085	 0.5003614303	-0.424349
C	-0.0742954799	 0.1062937287	 0.2030410153	 0.03756
C	 0.4527770675	-0.5569130843	 1.4862220356	-0.092297
O	-0.325236869	-1.7433435771	 1.6992970591	-0.241602
C	-1.6059771011	-1.5225124581	 1.1573433103	-0.094619
C	-2.4835831849	-0.7532733196	 2.0677999268	 0.276151
N	-3.1666462513	-0.1351092321	 2.7656348178	-0.323373
C	-1.3413178849	-0.7343167741	-0.1613767534	 0.102134
O	-2.40710741	 0.0321004909	-0.6408645433	-0.427299
H	-0.6395982943	 1.8834332431	-0.3317444256	 0.293836
H	 0.6607263551	 0.0705505177	-0.6090174734	 0.087637
H	 1.4965432453	-0.8694114176	 1.4281764886	 0.123988
H	 0.3305371359	 0.1466406413	 2.3191842688	 0.135262
H	-2.0688485939	-2.4957994868	 0.9765235298	 0.13756
H	-1.1019435588	-1.4644460816	-0.9378717897	 0.111218
H	-2.5761261043	 0.7231386747	 0.0144518231	 0.298195
