22
gdb 59602	2.68048	1.15228	1.04167	3.9309	81.97	-0.2363	0.037	0.2733	1290.3431	0.195077	-404.411015	-404.401548	-404.400604	-404.445402	35.813	
C	 0.1460257987	 1.4980224171	 0.0677696243	-0.403609
C	 0.0130116462	-0.0314301656	 0.1001166192	 0.035808
C	 0.6422030152	-0.6058916825	 1.3759208552	-0.398352
C	-1.4585706618	-0.4620901068	-0.1119055192	 0.028175
C	-1.6893276292	-2.0017655174	-0.1750272551	-0.245986
C	-2.3272344964	-2.3843056679	 1.1715587844	-0.329888
C	-2.8686901686	-1.0692132164	 1.7395292313	 0.404657
O	-3.6027425438	-0.9249765478	 2.6924736402	-0.381534
N	-2.3514206906	-0.0646035757	 0.9663335643	-0.295863
H	 1.196548478	 1.8007340532	 0.1162282239	 0.118541
H	-0.2824787709	 1.9209686768	-0.8474996032	 0.111613
H	-0.3618616126	 1.9590655558	 0.9231693987	 0.113816
H	 0.5609818183	-0.431977485	-0.7648931527	 0.075987
H	 0.1082010989	-0.2622824283	 2.2677934039	 0.128103
H	 0.6391704565	-1.7000220297	 1.380877566	 0.114673
H	 1.6833200811	-0.2812324037	 1.467683399	 0.115444
H	-1.792337229	-0.0009970375	-1.0508562612	 0.077964
H	-2.3773800027	-2.2279195675	-0.9937945025	 0.112526
H	-0.7590942834	-2.5365011142	-0.3792838537	 0.109037
H	-3.1353530801	-3.1133429058	 1.0870757261	 0.128864
H	-1.6033845514	-2.7884457394	 1.8865278002	 0.131104
H	-2.5591923322	 0.8955420882	 1.189771531	 0.248919
