21
gdb 101751	4.77484	0.70989	0.64665	1.1646	74.77	-0.2467	0.0491	0.2957	1709.2396	0.181675	-461.329754	-461.319946	-461.319002	-461.365411	35.416	
O	 0.1083914827	 1.3994571419	-0.1738101395	-0.423212
C	 0.1054190035	 0.0039592034	 0.0273242263	-0.063607
C	-1.3237595942	-0.5402619441	 0.0790905504	 0.095662
O	-2.0311329296	-0.0947150157	-1.0881613815	-0.434604
C	-1.3923331045	-2.0573266539	 0.2563420976	-0.25275
C	-2.815347583	-2.5942946805	 0.3449659814	-0.000278
C	-3.6595323851	-2.7236211287	-0.943128654	-0.07188
O	-3.9537037479	-4.1074640816	-0.6626025099	-0.271677
C	-3.0232161838	-4.1228005106	 0.4377700172	-0.097248
H	-0.591293535	 1.5663874917	-0.8190549093	 0.28516
H	 0.6606146118	-0.5222026075	-0.7724288494	 0.071779
H	 0.6261530462	-0.1963972494	 0.9702947474	 0.108056
H	-1.8467269738	-0.0475156007	 0.907790481	 0.100086
H	-1.6640623753	-0.561812356	-1.8488237547	 0.283394
H	-0.8608451056	-2.5483273154	-0.5729382118	 0.092931
H	-0.8435005201	-2.3234193828	 1.1699126888	 0.108609
H	-3.3630195604	-2.0650888041	 1.1303943017	 0.085048
H	-4.5634417382	-2.1102446554	-1.0133530095	 0.111575
H	-3.0859987716	-2.6139511115	-1.8745834309	 0.076723
H	-2.1255049439	-4.715862837	 0.2078441947	 0.092309
H	-3.4761091424	-4.5101611023	 1.3577303541	 0.103923
