16
gdb 43765	3.55796	1.2305	1.14383	4.2317	68.77	-0.2526	-0.0145	0.2381	1091.2605	0.123657	-437.837557	-437.82989	-437.828946	-437.870275	28.734	
O	-0.1596691678	 0.0254205487	 0.0472335491	-0.289455
C	-0.1862426558	 1.2126876449	 0.0977826895	 0.417553
C	-1.1972974037	 2.2800816633	 0.5440141091	-0.435334
C	-0.125761022	 3.2858600099	 0.1067585643	 0.304629
C	 1.1514524117	 3.0161606065	 0.7813588157	-0.280512
N	 0.7966895236	 2.168772218	-0.4025409481	-0.204574
C	-0.3990699982	 4.4954664488	-0.7133721106	-0.055113
C	 0.1784003379	 4.6591173596	-2.0544518452	-0.165218
O	-1.1910731585	 4.2848514991	-1.8826785635	-0.231671
H	-2.0731943557	 2.2846732712	-0.109335657	 0.163745
H	-1.5132898171	 2.2781396427	 1.5897749814	 0.133097
H	 1.9945096972	 3.6672599139	 0.5738840466	 0.140857
H	 1.1655561628	 2.5543130514	 1.7658851552	 0.135079
H	-0.6677425867	 5.3888480316	-0.1470062859	 0.102683
H	 0.3423307675	 5.6613236634	-2.4469075884	 0.119223
H	 0.8269142548	 3.876001907	-2.4391551721	 0.145011
