17
gdb 45198	3.39766	1.58111	1.33597	1.9032	72.94	-0.2441	-0.0269	0.2172	962.4965	0.137402	-421.77485	-421.768258	-421.767314	-421.80565	27.409	
O	-0.1168934161	-0.0070966573	 0.2607658606	-0.29058
C	-0.0738828895	 1.1712864187	 0.0822213107	 0.300684
C	-1.1635320616	 2.2701895747	-0.219308494	-0.416455
C	 0.0105179356	 3.0646894586	-0.8776623268	 0.140698
O	 0.4758110008	 4.4014057559	-0.6672529266	-0.295727
C	 1.6914791568	 4.12826322	 0.0781362305	 0.100921
C	 1.169875577	 3.2042362793	 1.1878546728	-0.250314
C	 1.0103130035	 2.2473474494	-0.0603172231	 0.140638
C	 2.3564777339	 2.8433256854	-0.5590618172	-0.346523
H	-1.9800211066	 1.9537023597	-0.8702631868	 0.130561
H	-1.5722399413	 2.7110988205	 0.6914361244	 0.140579
H	 0.0367636063	 2.8431319832	-1.950233276	 0.091719
H	 2.2333491788	 5.056209519	 0.2540282349	 0.09328
H	 1.9346265198	 2.8265679747	 1.8681965256	 0.116015
H	 0.2845671046	 3.5373890402	 1.7297258986	 0.113087
H	 2.5300101446	 2.8316800349	-1.6367062198	 0.11408
H	 3.2485638533	 2.5400932333	-0.010063758	 0.117337
