27
gdb 122143	2.6349	0.7445	0.61763	1.0561	94.38	-0.2497	0.0864	0.3361	1968.8082	0.249455	-390.698764	-390.686532	-390.685588	-390.737638	42.996	
C	-0.5816038475	 1.6649868359	-0.7944300707	-0.387152
C	-0.5399839305	 0.1489424346	-0.8868356725	-0.027271
O	-1.7695372099	-0.3693953575	-0.4248286489	-0.242401
C	-1.8373280611	-1.7784089933	-0.4887777366	-0.054853
C	-3.1896970836	-2.2874386934	 0.0169580782	 0.017347
C	-3.2577512265	-3.8136691722	-0.2071323093	-0.1821
C	-4.6747266308	-4.3946030599	-0.1679081778	-0.389381
C	-3.4496493842	-1.9186035435	 1.4946692099	-0.165427
C	-3.9655090635	-0.4949670968	 1.733853043	-0.385354
H	 0.3564668493	 2.0952771997	-1.1579103562	 0.113586
H	-1.4031318389	 2.0630504725	-1.3967802522	 0.126536
H	-0.7304201741	 1.9840238759	 0.2411999447	 0.126687
H	-0.3632012567	-0.1696329152	-1.9287303048	 0.083636
H	 0.2933830722	-0.2531646677	-0.2853045026	 0.08388
H	-1.6824320207	-2.1100264749	-1.530375191	 0.07821
H	-1.0240077991	-2.2253709396	 0.1121765382	 0.07895
H	-3.9657839072	-1.8166700004	-0.6036348643	 0.073288
H	-2.8107382268	-4.0551270749	-1.1801835744	 0.089464
H	-2.6324922735	-4.3145512587	 0.5446546027	 0.094121
H	-4.6581693713	-5.4767659308	-0.3315024911	 0.111443
H	-5.1675146743	-4.2170831344	 0.7931474526	 0.120077
H	-5.3025539195	-3.9497233546	-0.9478633851	 0.114878
H	-4.1761275447	-2.625199137	 1.9129337591	 0.090161
H	-2.5217508965	-2.0771513468	 2.061787617	 0.08841
H	-3.2553717567	 0.2476206886	 1.3681795143	 0.137893
H	-4.9166421366	-0.3334436688	 1.2135247602	 0.105905
H	-4.1395491074	-0.3190700168	 2.8007870676	 0.099469
