18
gdb 7953	3.2891	1.67661	1.31229	2.3433	67.19	-0.2369	-0.0166	0.2203	963.5624	0.153158	-384.975105	-384.966971	-384.966027	-385.007583	30.748	
C	 0.2230506014	 1.6386383022	 0.0695552977	-0.390466
C	 0.0438880885	 0.1160513292	 0.01553726	-0.018186
C	 0.7290858879	-0.5073713704	-1.2149580365	-0.330056
C	 2.1608082402	-0.8275798992	-0.7677086233	 0.405903
O	 3.0779255479	-1.1183530647	-1.489970697	-0.311598
C	 2.2143945786	-0.7241582215	 0.7605857971	-0.360825
C	 0.7427342527	-0.6115201395	 1.1924041294	 0.120301
O	 0.5228421219	 0.0933657164	 2.3994616182	-0.432427
H	 1.2773932605	 1.9298941833	 0.005601712	 0.114465
H	-0.2980995822	 2.1089841232	-0.7701718144	 0.112671
H	-0.1775559509	 2.0441963204	 1.0003773179	 0.138353
H	-1.0269229362	-0.1077833277	 0.0324532052	 0.079486
H	 0.2621966256	-1.4612297403	-1.4955159936	 0.12799
H	 0.7249440177	 0.1223857867	-2.1083082189	 0.127852
H	 2.7652571367	-1.5626887959	 1.1946057757	 0.119897
H	 2.7505988736	 0.195622628	 1.0261922081	 0.139888
H	 0.3165915977	-1.6256724178	 1.263237039	 0.070385
H	 0.9426881084	-0.3935951225	 3.1150114633	 0.286367
