20
gdb 38519	2.92844	1.91821	1.40243	1.4645	83.57	-0.2152	0.0136	0.2288	967.4138	0.174797	-365.9638	-365.957038	-365.956094	-365.994584	28.621	
C	-0.0621901173	 1.4525317517	-0.1591103655	-0.191393
C	 1.4830916507	 1.5592811175	 0.0724024154	 0.010304
C	 2.0507478318	 2.5303655558	 1.1336895515	-0.22472
C	 2.3477142524	 1.8221418138	 2.493831428	-0.247273
C	 1.1847243883	 0.9231188923	 2.8511665381	-0.182062
C	 0.8189918282	 0.0449692366	 1.9224172199	 0.21993
C	-0.4971282969	-0.4862654006	 1.3912303609	-0.244897
N	-0.0543657385	-0.0502232814	 0.0089795134	-0.140018
C	 1.3744418772	 0.084846572	 0.5154835141	-0.064595
H	-0.6638900363	 1.9760141741	 0.5934471391	 0.097295
H	-0.4117410032	 1.7439890708	-1.1527628682	 0.10611
H	 2.0093888436	 1.6717661542	-0.8784854387	 0.076276
H	 2.9689607165	 3.0036833496	 0.7687833243	 0.094689
H	 1.3334848918	 3.341079623	 1.3067533996	 0.100574
H	 3.2726968211	 1.2410554028	 2.3904712302	 0.111562
H	 2.5362698658	 2.5683024781	 3.2704219939	 0.098697
H	 0.5912527045	 1.1180658807	 3.7400188217	 0.087018
H	-0.6155885834	-1.5751411133	 1.3980868131	 0.111917
H	-1.4183099146	-0.023024323	 1.7617039547	 0.107349
H	 2.1080516982	-0.6579883644	 0.1910701345	 0.073235
