21
gdb 113056	3.50861	0.95388	0.80668	2.0385	80.42	-0.2232	-0.0243	0.1989	1493.4324	0.180236	-424.227338	-424.217234	-424.21629	-424.262971	36.011	
C	 0.1509883542	 1.4413859826	 0.3736226269	-0.38555
C	 0.0727746659	-0.0511904754	 0.0354350325	-0.192568
C	-1.3622429161	-0.5723012303	-0.0017929076	-0.089418
C	-1.6391020279	-2.0944308116	-0.2234780633	-0.308352
C	-2.7140431261	-2.0805557477	 0.8955771401	 0.053768
O	-2.679942046	-3.1567729012	 1.7807171266	-0.2416
C	-3.6714145525	-3.0839546272	 2.7924683716	-0.249215
C	-2.106399673	-0.725424506	 1.3394183344	 0.359039
O	-2.0568843383	-0.1458283819	 2.3885448678	-0.309078
H	 1.1903331431	 1.7816415494	 0.4094641047	 0.112165
H	-0.3712369435	 2.0443545337	-0.3778457044	 0.110176
H	-0.3095479792	 1.6398195399	 1.3449211012	 0.147115
H	 0.5463484608	-0.2454247713	-0.9351634436	 0.100267
H	 0.6393445647	-0.6281329189	 0.7769753768	 0.104147
H	-1.9677725521	 0.0337532092	-0.6886966664	 0.098375
H	-1.9701114955	-2.4036469233	-1.2148859751	 0.110175
H	-0.7885983293	-2.706090835	 0.0883767852	 0.125706
H	-3.7262510321	-1.9242501005	 0.4818787875	 0.082554
H	-3.5431550638	-2.1933688467	 3.418428589	 0.140007
H	-4.6832513347	-3.0706776791	 2.3576840263	 0.103647
H	-3.5626185186	-3.9794452789	 3.4082167099	 0.128639
