21
gdb 93260	2.15766	1.63449	1.1893	3.2461	77.93	-0.2352	-0.0148	0.2205	1129.9644	0.181008	-424.266885	-424.257196	-424.256252	-424.300895	36.738	
C	 0.0936092199	 1.5069429077	 0.0675837633	-0.418475
C	-0.042470999	-0.0298345639	-0.0361609527	 0.162511
C	-1.5201715977	-0.4285531992	-0.0264017578	-0.439673
C	 0.7416776091	-0.5900787755	-1.2426026557	 0.104506
O	 0.5614516982	 0.2353850533	-2.378072789	-0.438955
C	 2.2026923676	-0.707542825	-0.7582211668	-0.270746
C	 2.0710032798	-1.1719861178	 0.6992674725	-0.329236
C	 0.7116444801	-0.633817866	 1.1641121942	 0.394799
O	 0.2945957699	-0.6717231932	 2.2933995679	-0.332855
H	 1.1376830596	 1.8335291736	 0.0917181315	 0.114002
H	-0.3825049254	 1.9811454941	-0.7931150663	 0.13668
H	-0.3895748229	 1.8536290715	 0.9850299717	 0.128173
H	-2.0462976304	 0.0339579517	-0.8670738736	 0.122305
H	-1.6401466998	-1.5142831018	-0.1053770806	 0.109007
H	-1.9924965604	-0.1080424379	 0.9059803518	 0.13257
H	 0.3608293821	-1.6047934626	-1.4501569829	 0.064276
H	 1.0292268203	-0.1637288161	-3.118226423	 0.28469
H	 2.7923322351	-1.389258626	-1.3784398472	 0.094656
H	 2.6735512819	 0.2792983465	-0.8148707361	 0.115967
H	 2.030384415	-2.2660214244	 0.7765855271	 0.132962
H	 2.871952397	-0.8412328491	 1.3648808618	 0.132836
