18
gdb 19590	2.98033	2.82718	2.04393	2.0014	71.14	-0.1942	0.0828	0.2771	749.8104	0.156131	-343.899697	-343.893184	-343.89224	-343.930128	26.552	
C	-0.0222004432	 1.545646235	-0.0906792559	-0.305926
N	-0.0450389061	 0.0912221935	 0.0464942491	-0.051108
C	-1.1879625122	-0.7069427558	 0.5397433802	-0.035339
C	-0.1639578184	-1.8897659034	 0.5907521729	-0.207772
C	 0.7506018081	-0.6925613995	 1.0156654535	-0.035338
C	 0.1388233927	-0.3968875699	 2.4187425827	-0.046917
N	-0.6488920878	 0.8558561917	 2.4833097956	-0.336799
C	-1.2996265199	-0.4075281735	 2.0656002745	-0.046921
H	 0.7140047793	 2.0043090808	 0.5741708039	 0.121959
H	 0.2297249009	 1.8078385274	-1.1275753152	 0.092587
H	-0.9884561174	 1.9919121125	 0.1574673584	 0.121988
H	-2.0987503547	-0.7299517856	-0.0599922635	 0.067335
H	-0.3385754739	-2.6793849307	 1.3258885013	 0.086678
H	 0.0807284624	-2.2866646081	-0.3939421518	 0.106297
H	 1.8357914603	-0.7007554654	 0.9059212822	 0.067334
H	 0.542020392	-0.8399577851	 3.3223979102	 0.087424
H	-0.8893859024	 1.0301051425	 3.4576242754	 0.227094
H	-2.0692144898	-0.8592553764	 2.6813496765	 0.087425
