25
gdb 106299	3.35005	1.12212	1.04095	0.0547	92.71	-0.2766	0.0835	0.3601	1332.0869	0.229936	-352.368253	-352.359034	-352.35809	-352.401616	37.069	
C	 0.074065341	 1.5229811659	-0.1327622269	-0.383525
C	-0.0213659205	 0.0085151846	 0.0925056644	-0.290528
C	-1.4351059289	-0.5387642659	 0.0561357688	 0.374441
C	-2.3153389211	-0.5023489776	-1.2338835086	-0.293758
C	-3.0966442997	-1.6445165062	-0.5148738769	 0.350955
C	-3.9988076184	-2.6018090195	-1.2587213221	-0.497306
C	-1.7126435797	-2.0734639546	 0.0603520884	-0.306914
C	-3.6956276157	-0.8847532241	 0.6894202176	-0.247023
C	-2.4470023974	-0.0534192228	 1.1217591178	-0.256256
H	 1.1171722007	 1.8540309575	-0.1332887329	 0.109823
H	-0.3656307887	 1.8081020549	-1.0946269539	 0.117222
H	-0.4493298489	 2.0816726814	 0.6496183405	 0.117411
H	 0.5777888151	-0.5067201456	-0.6696135454	 0.088844
H	 0.4355141575	-0.2461098824	 1.0591101816	 0.091014
H	-2.8554697116	 0.4202397493	-1.4724307929	 0.080549
H	-1.7749589588	-0.8587185749	-2.1159636552	 0.085775
H	-3.4735807147	-3.0855853679	-2.0892589353	 0.109276
H	-4.3712803701	-3.3910719546	-0.5947716791	 0.111925
H	-4.871060937	-2.0821486902	-1.6729815478	 0.11179
H	-1.1025505691	-2.6074641858	-0.6743400484	 0.085446
H	-1.6912195806	-2.6012982262	 1.0203152544	 0.079357
H	-4.543095514	-0.2560607937	 0.3966636973	 0.089285
H	-4.0436228333	-1.5673687122	 1.4716630886	 0.089702
H	-2.1120391736	-0.2875368375	 2.1377509011	 0.089537
H	-2.6233387826	 1.0248892783	 1.0701461451	 0.09296
