19
gdb 89995	3.422	1.16215	1.02506	1.366	70.75	-0.2446	0.0465	0.2911	1192.1131	0.158529	-460.117019	-460.108175	-460.107231	-460.151092	32.896	
O	 0.012414611	 1.4747821575	-0.110078677	-0.443041
C	 0.0544634495	 0.0758883165	-0.0860565156	 0.152634
C	 0.4740336481	-0.6533139122	 1.2233335418	-0.366216
C	-0.7065834729	-1.6322506995	 1.0235052976	 0.30287
C	-0.4831389725	-3.1027453555	 0.6144102716	-0.134044
O	-1.398949797	-3.570368256	 1.6211092428	-0.275479
C	-1.5567047441	-2.2349993713	 2.1517355223	-0.133948
C	-1.323357172	-0.6599683538	-0.0090123483	-0.019272
O	-2.297035633	 0.1577450247	 0.6282994063	-0.43671
H	-0.6524590634	 1.7264557137	 0.5443571931	 0.27607
H	 0.6470762666	-0.2435604238	-0.9478273611	 0.091909
H	 1.4801703347	-1.0778204747	 1.2702248894	 0.104685
H	 0.3230001074	-0.0101419512	 2.0962508186	 0.106706
H	-0.8008233271	-3.3844495116	-0.398350614	 0.09953
H	 0.5382281462	-3.4721623006	 0.7829990715	 0.096585
H	-1.1187172233	-2.1379852053	 3.1544804791	 0.097009
H	-2.6033853091	-1.9156150581	 2.1791515382	 0.118175
H	-1.7233743927	-1.1021719118	-0.9300004547	 0.067396
H	-2.7017680366	 0.7108008431	-0.0479756417	 0.29514
