17
gdb 128687	3.1619	1.26097	0.91174	1.654	71.8	-0.2072	0.0481	0.2553	1245.2854	0.135067	-455.161374	-455.15165	-455.150706	-455.196517	33.778	
C	-0.0730484875	 1.3891463953	-0.0118257821	-0.233024
O	-0.0300017888	-0.0335627954	-0.0447924356	-0.266362
C	-1.2246079604	-0.6521555173	-0.0135763442	 0.415719
N	-2.3758109086	-0.0035925994	 0.0320389091	-0.344267
N	-3.3019870652	-1.0139369067	 0.0514357579	-0.294402
C	-2.7262412456	-2.2336074865	 0.020880946	 0.405505
O	-3.5187559111	-3.3275964903	 0.0422074535	-0.431158
C	-1.3561504906	-2.0673569277	-0.0221377093	-0.073246
C	-0.2773638382	-3.1015345279	-0.0654143058	-0.5185
H	 0.9654338695	 1.722670859	-0.039758462	 0.122653
H	-0.6210455221	 1.7851736479	-0.8732919784	 0.131278
H	-0.5610321062	 1.7460958779	 0.9013114894	 0.130867
H	-4.2822223817	-0.8005393964	 0.0906444301	 0.273298
H	-2.9606323712	-4.1099863944	-0.0158296014	 0.309625
H	 0.1948809497	-3.1769763105	-1.0523758785	 0.133836
H	 0.5164149163	-2.8757493088	 0.6539618865	 0.142008
H	-0.6619860881	-4.0977734388	 0.186305645	 0.096168
