16
gdb 34580	3.60238	1.23012	0.96977	4.9776	88.54	-0.2394	-0.0694	0.1701	1175.509	0.126523	-363.650902	-363.643429	-363.642485	-363.682798	28.827	
N	 0.1904615801	-1.0129716556	-0.7308665173	-0.335866
C	 0.0905791708	 0.107255389	-0.4529591126	 0.213719
C	-0.007697714	 1.4962734882	-0.1106428661	 0.096507
C	-1.2503070363	 2.0747809834	-0.1345852088	-0.151307
C	-1.5688054113	 3.4049704459	 0.3074660322	-0.051055
C	-0.7370013136	 4.4654203642	 0.2711042772	-0.078484
C	 0.5993266676	 4.4117615197	-0.4219641295	-0.318665
C	 1.4705411254	 3.4417170238	 0.3348337309	-0.081185
C	 1.2054002993	 2.1254316236	 0.3872107268	-0.096767
H	-2.0849017527	 1.4314372711	-0.3986868081	 0.119778
H	-2.5695437091	 3.5416701572	 0.7103446788	 0.105917
H	-1.0423342069	 5.3988886029	 0.7353723451	 0.109083
H	 0.4669964238	 4.0627582277	-1.4547748837	 0.130306
H	 1.0598357153	 5.4007233312	-0.4628082333	 0.112708
H	 2.349005149	 3.825552125	 0.8452731113	 0.109136
H	 1.9243378928	 1.4583268827	 0.8544515971	 0.116174
