21
gdb 81342	2.66567	1.36751	1.11993	1.904	85.19	-0.2141	0.0189	0.233	1217.5289	0.181286	-387.062293	-387.053162	-387.052218	-387.095623	34.828	
C	-0.1255875101	 1.4986850362	-0.0231986836	-0.425679
C	-0.0145881565	-0.0178148371	-0.0060648817	 0.035518
C	 1.2670926699	-0.6358389018	-0.6639693801	-0.043541
O	 2.00938861	-0.2469915862	 0.5404292191	-0.288758
C	 0.7622793662	-0.6517426549	 1.1989706097	-0.043542
C	 0.6968950884	-2.1553961404	 0.8633487417	 0.239555
C	 0.3277540485	-3.2493483611	 1.803033742	-0.520591
C	 1.0477047204	-2.1443459292	-0.4312282546	 0.239557
C	 1.2081862412	-3.2216111649	-1.4459940651	-0.520591
H	 0.8302877873	 1.9571503888	 0.2397790011	 0.135438
H	-0.4228088885	 1.8563400396	-1.0153754507	 0.111906
H	-0.8846523081	 1.8417913087	 0.6886791292	 0.111905
H	-0.9607838041	-0.5013851443	-0.2665891426	 0.065292
H	 1.7018750287	-0.2824318059	-1.6002049928	 0.06932
H	 0.6634042756	-0.3151488672	 2.2321199388	 0.06932
H	-0.6820192707	-3.107783857	 2.2100810676	 0.126037
H	 0.3541334853	-4.2279501505	 1.3146887586	 0.124905
H	 1.008786338	-3.2851087141	 2.6631507307	 0.131502
H	 0.9888341811	-4.2079833062	-1.0267176468	 0.124906
H	 0.5412984893	-3.0693566255	-2.3047440828	 0.126038
H	 2.230382428	-3.2464817268	-1.8452183474	 0.1315
