18
gdb 10654	2.70593	1.65399	1.28783	3.875	69.32	-0.2487	-0.0187	0.2299	1014.2741	0.151328	-384.937885	-384.928925	-384.927981	-384.971226	32.511	
C	 0.2415436872	 1.4638693463	 0.3460890112	-0.385011
C	-0.2460087068	 0.0989191461	-0.1541741173	-0.260654
C	 0.583508449	-0.453067964	-1.2994188653	 0.228189
C	 1.990860265	-1.0003008822	-1.0233933477	-0.370221
C	 0.8935273945	-1.9473822559	-1.3714481352	 0.055519
O	 0.3053446544	-2.7473342457	-0.3937781526	-0.412991
C	 0.4019555218	 0.1910715762	-2.6258799725	 0.122479
O	-0.3534358967	 1.1035153872	-2.8555481374	-0.26806
H	 1.2751495171	 1.4113951331	 0.7056379597	 0.105908
H	 0.1951327895	 2.2100224728	-0.4510015443	 0.138555
H	-0.3815896487	 1.814596359	 1.174485042	 0.111711
H	-0.2463247882	-0.63068949	 0.659550454	 0.111922
H	-1.2814059556	 0.1889081511	-0.4999530748	 0.115954
H	 2.7766682004	-0.814273338	-1.7486709343	 0.121824
H	 2.3032360838	-0.958528238	 0.014480886	 0.129974
H	 0.9100730626	-2.3894076034	-2.3682429064	 0.097948
H	 0.9468942765	-3.414869473	-0.1291417371	 0.29475
H	 1.0326123642	-0.2451294115	-3.438016828	 0.062205
