12
gdb 48239	2.00122	1.66864	0.98418	2.3144	58.95	-0.2772	-0.1232	0.154	1106.3001	0.074069	-509.808232	-509.799511	-509.798566	-509.84264	28.812	
O	-0.2865698183	 0.3084325057	-0.4092345529	-0.278824
C	-0.0502513442	 1.4845105757	-0.4468929914	 0.185354
N	 1.2137313645	 2.027000868	-0.0973317227	-0.208425
C	 2.2865501218	 1.1058859407	 0.1418763738	 0.173264
O	 3.3665863604	 1.423769711	 0.5397833605	-0.248693
C	 1.4334812988	 3.4229484732	-0.0235331395	 0.320599
O	 2.4872042942	 3.9535304861	-0.2501846183	-0.252777
C	 0.2704492097	 4.2978490646	 0.4755298483	 0.099609
O	-0.776180131	 3.8835287715	 0.8918927533	-0.223766
H	-0.7655656375	 2.2422756653	-0.7870643323	 0.13555
H	 1.9573156096	 0.0805778944	-0.0716938197	 0.156689
H	 0.5464480321	 5.3690730839	 0.4411894009	 0.141419
