20
gdb 13934	3.17936	1.76648	1.42537	1.9716	74.29	-0.2409	0.0691	0.31	965.516	0.177167	-348.974529	-348.966481	-348.965536	-349.007252	30.202	
C	-0.0936865133	 1.5652612163	-0.1774154447	-0.419759
C	 0.0557028166	 0.0578204194	-0.0452714894	-0.01284
C	 1.1043071202	-0.6857121007	-0.9193829667	-0.232395
C	 1.4045315757	-1.6065393958	 0.2923217894	-0.292099
C	 0.7226609451	-0.5682110124	 1.2158212736	 0.29722
C	 1.5878033563	 0.2765903747	 2.179733493	-0.125988
O	 0.8140941191	-0.1461836767	 3.3201740742	-0.275217
C	-0.0527660392	-0.9436006067	 2.4886810665	-0.141797
H	 0.873419409	 2.0735466875	-0.0991016027	 0.114871
H	-0.5244619446	 1.8273885854	-1.1500046502	 0.116336
H	-0.7510475455	 1.9758189891	 0.5975421878	 0.119794
H	-0.9252787306	-0.4175837135	-0.175583654	 0.071878
H	 0.7570081928	-1.1533132932	-1.8436563117	 0.096612
H	 1.95469174	-0.0382788753	-1.1574290004	 0.099936
H	 0.8353963913	-2.5409387527	 0.2504656103	 0.101203
H	 2.4497539457	-1.8481486209	 0.504125839	 0.099589
H	 2.6390622604	-0.0320748456	 2.2587415473	 0.094801
H	 1.5476351352	 1.3647992372	 2.0438730893	 0.097898
H	-1.0942324381	-0.5934002586	 2.5248827834	 0.094003
H	-0.027028046	-2.0070896777	 2.763634076	 0.095953
