22
gdb 102506	1.69038	1.20916	0.89079	3.5064	82.64	-0.2962	0.0129	0.3091	1455.2321	0.19203	-404.367519	-404.35642	-404.355476	-404.404299	39.405	
C	-0.1767382236	 1.4932017306	-0.0930636086	-0.393567
C	-0.1112110274	-0.0323840629	 0.0364688781	-0.219661
C	 0.7746028486	-0.5260605788	 1.1995228678	 0.034622
C	 0.1140074658	-0.3063940689	 2.5746483181	-0.194139
C	 1.0652682426	-0.4308518174	 3.7695643365	-0.397938
C	 1.1439416286	-2.0218427066	 1.0205703255	-0.03778
O	 0.0183148335	-2.8827865928	 0.9916542911	-0.414061
C	 1.9897262	-2.2209887475	-0.1762847434	 0.266226
N	 2.6311982748	-2.3686325668	-1.1264609935	-0.32691
H	 0.8202457556	 1.9142766931	-0.2608712005	 0.124352
H	-0.8063976472	 1.7826700758	-0.9395711957	 0.120299
H	-0.5929584276	 1.9662677957	 0.8014902536	 0.123215
H	-1.1274027537	-0.4296984755	 0.1620497568	 0.098369
H	 0.2730649643	-0.440427285	-0.9070776202	 0.116508
H	 1.7218519933	 0.0308311476	 1.167197859	 0.08848
H	-0.3357683349	 0.6916590556	 2.5884893185	 0.099588
H	-0.7116945316	-1.0200018761	 2.6772748357	 0.115819
H	 1.8992200188	 0.2751207353	 3.688978243	 0.119019
H	 0.5392297118	-0.2179199954	 4.70495911	 0.120652
H	 1.4887031769	-1.4362064445	 3.8632801916	 0.122293
H	 1.7303333861	-2.352367302	 1.8835428181	 0.136264
H	-0.4885032947	-2.6909722532	 0.1945794384	 0.29835
