20
gdb 100573	3.41402	0.89844	0.76643	3.7894	82.89	-0.2379	0.0282	0.2661	1531.1195	0.167634	-403.142046	-403.131105	-403.13016	-403.179754	37.942	
C	-0.0716325031	 1.6028771714	-0.0426391002	-0.38069
C	-0.0319343485	 0.0720098631	-0.0280930326	-0.149286
N	-1.3601008146	-0.5448575948	 0.0141530938	-0.095398
C	-2.069570259	-0.6703746694	-1.2470325381	-0.342185
C	-1.9183374861	-0.7540071	 1.2505509215	 0.435554
O	-1.321507502	-0.5063628567	 2.2807066649	-0.364674
C	-3.3460189559	-1.3423973825	 1.2643574877	-0.544476
C	-3.8715939887	-1.5255005251	 2.6074171881	 0.346576
C	-4.3441737019	-1.693068746	 3.6978999382	-0.422113
H	 0.9445311901	 2.0069136232	-0.090457819	 0.119167
H	-0.6249969512	 1.9872755885	-0.9058432156	 0.11205
H	-0.5449631303	 1.975143025	 0.8695711729	 0.144468
H	 0.4806503064	-0.3075507559	-0.9191461238	 0.096914
H	 0.5102003077	-0.2733506317	 0.8530232066	 0.143823
H	-2.8599055497	-1.4182101321	-1.1870359939	 0.141491
H	-2.5184768176	 0.2769390241	-1.5779791968	 0.128547
H	-1.3694809128	-0.9968040908	-2.0226088046	 0.131811
H	-4.0139790501	-0.6873817505	 0.6905134313	 0.149703
H	-3.3429696375	-2.3038808637	 0.7342324845	 0.153773
H	-4.742991015	-1.8329129963	 4.6717478352	 0.194944
