16
gdb 67978	3.2088	1.67693	1.26112	2.8704	68.41	-0.2381	0.0022	0.2404	970.4348	0.124486	-437.852803	-437.845731	-437.844787	-437.883916	28.531	
C	 0.0363185653	 1.527205576	-0.0398586236	-0.517216
C	 0.0697604118	 0.0259219996	-0.012834595	 0.337371
N	 0.5852321684	-0.6588292105	-1.1893524799	-0.395846
C	 0.4162447893	-2.0161408017	-0.9346687636	 0.418038
O	 0.5703805534	-2.938632592	-1.6948902393	-0.363088
C	-0.0552355804	-2.0010465139	 0.5159303431	-0.201694
C	 0.5990213352	-0.7727360583	 1.2225320435	 0.038063
O	-0.6269432193	-0.4849191509	 1.9749957479	-0.314802
C	-1.091503452	-0.8300239497	 0.6314468148	 0.021642
H	 1.0358357712	 1.9374321272	-0.2143351208	 0.134149
H	-0.6252193658	 1.8941671655	-0.8321244456	 0.125024
H	-0.3349441338	 1.894603241	 0.9192034812	 0.153124
H	 0.4776833352	-0.2967750554	-2.1252902167	 0.250719
H	-0.2092487493	-2.9375523896	 1.0428910012	 0.1056
H	 1.5561286942	-0.7082074952	 1.7417058106	 0.105622
H	-2.1667193333	-0.8403166223	 0.4449780221	 0.103293
