18
gdb 23437	3.38403	1.23736	1.07609	0.7497	80.59	-0.241	0.0073	0.2483	1153.7641	0.148582	-401.908839	-401.901095	-401.900151	-401.941327	30.285	
O	-0.3904241805	 1.331622876	-0.404733551	-0.393625
N	-0.2437436914	-0.0665244142	-0.4921053457	-0.237248
C	-1.2187301992	-0.6609051528	 0.0540798829	 0.424157
C	-2.5031923578	-0.2476529162	 0.7442123001	-0.335571
C	-2.9204030941	-1.7599319372	 0.717877316	-0.067033
C	-3.8322546619	-2.1526701924	-0.4117010391	-0.073337
C	-3.1892220467	-2.7558546405	-1.4120426025	-0.056157
C	-1.7091493719	-2.9282495444	-1.1530542534	-0.269576
C	-1.4962212238	-2.1497100791	 0.1654579094	-0.120567
H	 0.39915126	 1.6460054046	-0.85774922	 0.305167
H	-2.3390283877	 0.1596606739	 1.7474426171	 0.121109
H	-3.1377749616	 0.4481348137	 0.1886286225	 0.124514
H	-3.2238304367	-2.1676846538	 1.6858634066	 0.074847
H	-4.8961609468	-1.9397351411	-0.3960157221	 0.092825
H	-3.6572723127	-3.1086572101	-2.3251689644	 0.093523
H	-1.4430664225	-3.9886241919	-1.0504776764	 0.10475
H	-1.0882399744	-2.5271542238	-1.9617987554	 0.123231
H	-0.8318324202	-2.6603389806	 0.8665019353	 0.088993
