18
gdb 5250	6.56941	1.04771	0.9607	3.3263	74.31	-0.2158	0.0366	0.2524	1241.6544	0.15572	-344.034388	-344.026416	-344.025471	-344.067392	29.157	
C	-0.0352370881	 1.572874572	-0.023959592	-0.381121
C	 0.1323704822	 0.0528247316	-0.0727981722	-0.149844
C	 0.668673215	-0.5328005657	 1.2454819668	-0.29556
C	 0.7737474638	-2.025766156	 1.2246738331	 0.294488
C	 1.8963647544	-2.8110211363	 1.2944941436	-0.195972
N	 1.4464596956	-4.1130688414	 1.2198247494	-0.229784
C	 0.0901312418	-4.0607052712	 1.109933763	 0.010103
N	-0.3485704441	-2.8245080025	 1.1089919704	-0.303001
H	 0.9187349651	 2.0740207853	 0.1774127333	 0.108005
H	-0.4206567214	 1.9621441956	-0.9716541379	 0.108951
H	-0.7349092611	 1.8685397644	 0.7660113991	 0.113451
H	-0.8267233201	-0.4260659075	-0.298096647	 0.118717
H	 0.8127844123	-0.2224223063	-0.88849126	 0.089833
H	 1.6523006179	-0.1022913739	 1.4699940037	 0.090109
H	 0.0003973466	-0.2305081983	 2.0626318176	 0.107412
H	 2.9432472637	-2.5748435089	 1.3898905144	 0.12342
H	 2.0144509336	-4.942559606	 1.2497541623	 0.264656
H	-0.5168493369	-4.9511311548	 1.0372893823	 0.126138
