18
gdb 103317	3.38971	1.26043	1.10215	3.1633	73.04	-0.2455	0.0059	0.2514	1142.4404	0.146288	-439.027991	-439.019323	-439.018379	-439.061156	32.937	
C	 0.0330493488	 1.5649333794	-0.1352739599	-0.405422
C	-0.01063323	 0.0553002116	 0.1360731426	-0.254898
C	-1.4169862182	-0.526864474	 0.0849737704	 0.479581
O	-2.2708901955	-0.0064134583	 1.0714671041	-0.482816
C	-2.0701629447	-0.7675187455	-1.3296822521	-0.239424
N	-1.0824810237	-1.9219564169	-1.4721226178	-0.327473
C	-1.5718683847	-2.0701700258	-0.0330926096	-0.215642
C	-2.9822299358	-1.8002452604	-0.6214045122	 0.450684
O	-4.0667385452	-2.2834810815	-0.6937499043	-0.326898
H	 1.0637714279	 1.9292540974	-0.1099982476	 0.127399
H	-0.3804674113	 1.8079102059	-1.1199214684	 0.123368
H	-0.5207230831	 2.140913749	 0.6161059249	 0.108452
H	 0.6095939968	-0.4705759768	-0.5922791391	 0.134494
H	 0.4000217015	-0.1512320192	 1.1315721424	 0.107246
H	-2.2519913869	 0.9546669251	 1.0221944576	 0.287911
H	-2.2610261054	-0.0678997015	-2.1422169412	 0.095386
H	-1.476322705	-2.6599904954	-2.0600228263	 0.238022
H	-1.1962390454	-2.8451570531	 0.6326999865	 0.10003
