18
gdb 106424	2.89904	1.34007	1.15659	1.3585	72.36	-0.2455	0.0573	0.3027	1110.7175	0.147384	-438.973943	-438.965771	-438.964827	-439.006945	31.226	
O	 0.0278772923	 1.4102302642	 0.1294940869	-0.410962
C	 0.0005665619	-0.010249758	 0.1246402045	-0.210597
C	-1.4006581914	-0.5534464973	 0.1138807272	 0.192259
C	-2.5546073162	-0.3632428659	 1.1502861811	-0.27738
C	-3.1604987562	-1.1291503542	-0.0614967271	-0.140614
N	-2.3796711098	-0.2358097294	-1.0236864107	-0.376836
C	-1.9020060042	-2.0014669951	-0.0451631656	 0.547617
C	-1.4434859307	-3.2164923307	-0.6855512169	-0.304827
O	-1.6182544149	-3.1081062694	 0.757991427	-0.298046
H	-0.2556339177	 1.7051799426	-0.7419439606	 0.289505
H	 0.5568568073	-0.4208243488	-0.731500167	 0.101026
H	 0.5097587748	-0.3339394659	 1.0384355101	 0.127044
H	-2.476057737	-0.8901771648	 2.1056640632	 0.11465
H	-2.8988986999	 0.6669709714	 1.2741011689	 0.100628
H	-4.1956896234	-1.4111504113	-0.2510945564	 0.091159
H	-2.7146539804	 0.7226742342	-0.8792027281	 0.206862
H	-2.1534976979	-3.87345842	-1.1838135166	 0.125791
H	-0.4102556868	-3.3106701718	-1.0138392897	 0.122723
