19
gdb 15681	3.00111	1.82625	1.31331	2.9527	72.26	-0.2548	0.0296	0.2844	991.3451	0.167018	-365.093951	-365.085889	-365.084945	-365.126629	29.841	
C	-0.2665186453	 1.4016927304	 0.1778976697	-0.383807
C	-0.0673312566	-0.0927745214	-0.0833353534	-0.184348
C	 0.8456302339	-0.3981970067	-1.2936480262	-0.070646
C	 1.1365428221	-1.9008845644	-1.4707878326	-0.254299
C	 0.0127990673	-2.3474573965	-2.4142318697	-0.082293
O	-0.2937984614	-1.1918092046	-3.211198008	-0.23887
C	 0.1695511655	-0.0539734573	-2.6101472388	 0.412259
N	 0.0357085163	 1.1057781488	-3.0954780682	-0.538447
H	 0.6863116085	 1.885107284	 0.4204251689	 0.112817
H	-0.6746207726	 1.9035608708	-0.7023255584	 0.152406
H	-0.9462426224	 1.5601918291	 1.0209019042	 0.106138
H	 0.3804169698	-0.5661462336	 0.7994126388	 0.095804
H	-1.0410987258	-0.5786120434	-0.2294826898	 0.099447
H	 1.7616541991	 0.1897644426	-1.1975481162	 0.10096
H	 2.108169501	-2.0484816346	-1.9516113205	 0.1143
H	 1.1365476571	-2.4547693226	-0.529042022	 0.107606
H	 0.2977514612	-3.1560291962	-3.0915572444	 0.119194
H	-0.8892533871	-2.6522183147	-1.8695031796	 0.113111
H	-0.4759769605	 1.0643400304	-3.9791919138	 0.218667
