14
gdb 27701	2.91913	1.34266	0.92549	4.2544	75.04	-0.222	-0.0336	0.1885	1189.5107	0.101645	-432.928447	-432.920084	-432.91914	-432.961739	30.005	
C	 0.0702795768	 1.4182718413	 0.0199725749	-0.494523
C	-0.0375087447	-0.0620795574	-0.0163546255	 0.393453
N	-1.1130683813	-0.7764206551	-0.1917213551	-0.335653
C	-0.6823560441	-2.0861499396	-0.1445136702	 0.218332
N	-1.551865437	-3.1172252629	-0.348794219	-0.598483
C	 0.6770626203	-2.1027539551	 0.0689965779	 0.164556
O	 1.0870234953	-0.7758292626	 0.1475308544	-0.207304
C	 1.6030088421	-3.139511361	 0.2111405126	 0.193219
N	 2.3289468107	-4.0392543474	 0.3270045252	-0.356089
H	 0.7355208688	 1.7768738274	-0.7717883337	 0.159001
H	-0.91964443	 1.8525847363	-0.1170815551	 0.162302
H	 0.4849844029	 1.7533807381	 0.9757714466	 0.157755
H	-2.5215755092	-2.8930537841	-0.1883153488	 0.270429
H	-1.2673182605	-4.0298003978	-0.0291017844	 0.273005
