16
gdb 16158	4.59119	1.6429	1.4029	1.6646	64.45	-0.2464	-0.0015	0.2449	892.4705	0.130769	-383.722602	-383.715469	-383.714524	-383.754116	27.261	
O	 0.0567490518	 1.3469486448	-0.3627529362	-0.41718
C	 0.0627594677	 0.0125413296	 0.1219104294	-0.155025
C	-1.3339358782	-0.5299936055	 0.2499075011	 0.383768
C	-2.3229641696	 0.0424368702	 1.2664074371	-0.320339
C	-3.2808367634	-1.1071709596	 1.5020365465	-0.078336
C	-2.9414357228	-2.1994771506	 0.8124493138	-0.078479
C	-1.7368187176	-1.9221240666	-0.025905533	-0.072924
O	-1.953405073	-0.87374231	-1.0040891469	-0.308167
H	-0.3841987891	 1.3268015788	-1.2198057379	 0.293202
H	 0.6502890793	-0.6516588996	-0.5289281044	 0.093856
H	 0.5503506678	 0.0472688554	 1.1020412458	 0.110162
H	-1.8125339718	 0.3469403965	 2.1892705852	 0.114597
H	-2.8280430359	 0.9333695547	 0.877497518	 0.130578
H	-4.152153395	-1.0135945338	 2.1405348044	 0.104099
H	-3.4639789699	-3.1476382744	 0.8123184424	 0.104691
H	-1.0484181404	-2.7018462001	-0.3391078752	 0.095496
