16
gdb 20218	3.41503	3.15234	2.1834	0.1759	66.05	-0.2135	0.0586	0.2721	674.0839	0.133404	-342.686617	-342.680864	-342.67992	-342.717025	23.214	
C	-0.0321517636	 1.4787338474	-0.1909097244	-0.161327
C	 1.2596648137	 2.2567380893	 0.1357007263	-0.161327
N	 2.3328497657	 1.4229450263	 0.6780821006	-0.090083
C	 2.573791541	 0.0771603706	 0.2050065279	-0.078384
C	 1.2553429424	-0.7168658366	-0.1283392856	-0.078388
C	 0.752436117	-0.4632355909	 1.2566713563	-0.078383
C	 2.0708653762	 0.3308133957	 1.5900060778	-0.078387
N	 0.0482560037	 0.0470452612	 0.1004964557	-0.090083
H	-0.8818885038	 1.8698273692	 0.3776372818	 0.109434
H	-0.2906459643	 1.5716324989	-1.250533866	 0.109435
H	 1.6606804729	 2.7468669503	-0.7571670068	 0.109434
H	 1.0694569711	 3.045012718	 0.8710210328	 0.109435
H	 3.561988009	-0.1998971082	-0.1441907277	 0.094656
H	 1.2158638325	-1.6128323096	-0.7373690959	 0.094655
H	 0.2401206956	-1.120740798	 1.9498175613	 0.094657
H	 2.586218511	 0.2922446665	 2.542977946	 0.094655
