18
gdb 71777	3.18142	1.8408	1.61341	2.142	72.88	-0.2247	0.0722	0.2969	885.2648	0.150723	-401.929529	-401.923035	-401.922091	-401.959854	27.835	
O	-0.0848210452	 1.3713872188	-0.0606457513	-0.474688
C	 0.0179160414	-0.0176286235	-0.0384286315	 0.382016
C	 1.0079680584	-0.7130190932	-0.9682994307	-0.238163
N	 0.5146406567	-2.0815263733	-1.1795037823	-0.120267
C	 0.1890726089	-2.8226109917	 0.0532785659	-0.040566
C	 0.3837748267	-2.1222838929	 1.3901766667	-0.251011
C	-0.3204577411	-0.7838095339	 1.2151381782	-0.146648
C	-1.2367999977	-0.8571891032	-0.0067816742	-0.117207
C	-0.8955339845	-2.1438122317	-0.7205783882	-0.057717
H	 0.6117515224	 1.7334862632	 0.4977418207	 0.28283
H	 1.0347959915	-0.1909108889	-1.9309718827	 0.113994
H	 2.0302200398	-0.7428929853	-0.5719198996	 0.098017
H	 0.3738918228	-3.8915303921	-0.0082948413	 0.088578
H	-0.0849322189	-2.7104620413	 2.1878644812	 0.106961
H	 1.4445416268	-2.0135121443	 1.649867497	 0.103369
H	-0.6280029146	-0.2076561052	 2.0813774559	 0.08597
H	-2.2236925977	-0.4162694478	-0.0268157054	 0.095059
H	-1.6137991858	-2.6528950236	-1.3525063684	 0.089472
