14
gdb 54498	2.7014	1.63968	1.12308	0.6606	62.34	-0.2645	-0.0167	0.2478	1018.0889	0.10074	-473.854944	-473.847117	-473.846172	-473.887603	28.936	
N	 0.0708085759	 1.162637745	-0.5380532225	-0.554425
C	 0.0522718369	 0.0047455005	 0.1713911783	 0.340412
O	 0.9762933485	-0.4117504931	 0.8446908096	-0.376991
C	-1.2339860021	-0.7415406746	 0.0455270734	-0.00281
C	-1.7347135236	-1.6968920476	 1.1497958895	-0.329058
C	-1.5070742054	-2.2193621761	-0.2034659456	 0.060385
O	-2.6391816567	-1.8918891505	-1.0617170157	-0.256421
C	-2.3380453026	-0.5441625191	-0.9499878895	 0.448694
O	-2.7999110361	 0.3653973712	-1.5652320064	-0.350325
H	 0.8919655518	 1.7430367894	-0.4904599074	 0.267666
H	-0.7419921674	 1.482007569	-1.0428191068	 0.283732
H	-0.9528925604	-1.896346973	 1.8763353761	 0.16915
H	-2.7457296074	-1.5943834612	 1.5290869894	 0.145234
H	-0.8346733515	-2.99458136	-0.5398405223	 0.154758
