20
gdb 40861	3.87644	1.42772	1.31838	1.7905	81.48	-0.2332	0.0801	0.3133	1036.8814	0.172927	-365.930113	-365.923038	-365.922094	-365.96149	29.218	
C	-0.0602482764	 1.4835794383	-0.0944182723	-0.210582
C	 1.4891258909	 1.4825807161	 0.0315176762	-0.296474
C	 1.4005447275	 0.0593752333	 0.6462734663	 0.423107
C	-0.0512644622	-0.0551886973	 0.1162743315	-0.307757
C	 2.5597484522	-0.9027993482	 0.4318174029	-0.140043
C	 3.1771268504	-0.5297230037	 1.7278191588	-0.043536
C	 1.7364448705	-0.0538324483	 2.1610027629	-0.166002
C	 1.4796823505	-1.5393450855	 2.4527158099	-0.157408
N	 2.630087693	-1.9036466584	 1.5566707584	-0.157266
H	-0.5400042329	 2.0100592148	 0.7350097937	 0.102543
H	-0.4816697859	 1.8586236089	-1.0294376912	 0.098304
H	 1.9775734707	 1.4723662989	-0.9482838645	 0.099227
H	 1.9544220656	 2.2632440698	 0.6398737188	 0.09762
H	-0.7983644661	-0.4777827244	 0.7943690858	 0.096374
H	-0.098377206	-0.6050634048	-0.8290372529	 0.102805
H	 3.0319406987	-1.1954037255	-0.4980420619	 0.089086
H	 4.1894874245	-0.3033864311	 2.0342436099	 0.096152
H	 1.4687550897	 0.7456070084	 2.8509509534	 0.069982
H	 1.7347513724	-1.8360834713	 3.4734176392	 0.106034
H	 0.5103304627	-1.9680117201	 2.1718008751	 0.097831
