16
gdb 46645	2.39928	1.52915	1.39545	4.6531	72.5	-0.2545	-0.0324	0.2221	1002.7909	0.125711	-400.784945	-400.777407	-400.776463	-400.817267	28.561	
O	 0.0593193497	-0.0038742047	 0.0709026047	-0.314481
C	-0.025958191	 1.1909752478	-0.0397025991	 0.424974
C	-1.3100302802	 1.9936062454	-0.2816944819	-0.350588
C	-0.8596868043	 3.3482564116	-0.8716520405	-0.23882
C	 0.636847185	 3.4695999455	-0.5703586957	-0.064478
C	 1.0726185732	 3.366455359	 0.8718804436	-0.186505
C	 0.1441878809	 3.4743442756	 1.9638701662	 0.303492
N	-0.6049946878	 3.5851958666	 2.838588024	-0.343229
C	 1.1420779805	 2.143055921	-0.0537989589	-0.171196
H	-1.973826993	 1.4299392612	-0.9401011102	 0.137242
H	-1.8282805631	 2.1088874041	 0.6757659746	 0.166949
H	-0.9939931016	 3.3543820473	-1.9572317579	 0.121173
H	-1.4244867573	 4.1934288216	-0.4686119364	 0.13002
H	 1.2495625718	 4.0867227566	-1.2169339295	 0.113586
H	 2.0458283058	 3.7887839601	 1.1011839891	 0.148344
H	 2.1254994516	 1.7391999914	-0.2571808322	 0.123519
