17
gdb 81412	3.80986	1.15955	1.06758	3.2046	67.89	-0.2407	-0.0336	0.2071	1133.7931	0.13534	-458.933375	-458.925468	-458.924524	-458.966743	29.819	
O	-0.1024244835	 1.2672751897	-0.4277329217	-0.437746
C	 0.0561743374	-0.0698991553	-0.0267734335	 0.123964
C	-0.0075452546	-0.3649786447	 1.5057031447	 0.058687
C	-1.5276411136	-0.1084027071	 1.4138661772	-0.253263
C	-1.3154524544	-0.813095896	 0.0323584763	-0.087046
C	-0.8134108895	-2.1937848091	 0.4894962282	 0.024938
O	 0.106582902	-1.8003931837	 1.5322702397	-0.295282
C	-1.8914364168	-3.1187126526	 1.0318854634	 0.13021
O	-2.7472330352	-3.607458003	 0.3415665264	-0.247359
H	 0.7204112759	 1.733878418	-0.2488409318	 0.29048
H	 0.8691838087	-0.5739578078	-0.566351148	 0.075032
H	 0.6563804781	 0.0728181971	 2.2500205053	 0.081856
H	-2.1672787658	-0.584470223	 2.1595056528	 0.10347
H	-1.7714216987	 0.9446774429	 1.2925593515	 0.128623
H	-2.0374158855	-0.7832471488	-0.780365582	 0.101148
H	-0.279385515	-2.7259816165	-0.3088004798	 0.109575
H	-1.8213384795	-3.3092888	 2.1259192414	 0.092712
