16
gdb 94766	3.96884	1.15559	1.01169	3.221	69.2	-0.2753	-0.0019	0.2734	1148.9163	0.124819	-437.88746	-437.879591	-437.878646	-437.919916	29.856	
O	 0.0460007094	 1.4101495112	-0.0714567509	-0.43268
C	 0.0516041397	-0.0005767793	-0.0527218207	 0.135166
C	 0.7396720258	-0.6251405654	 1.1907718348	-0.268859
C	 0.0623388705	-1.9929776023	 1.4199300188	-0.299746
C	-1.3325945235	-1.7966817526	 0.8385410381	 0.290568
O	-1.9600550267	-0.5683939194	 1.2431632777	-0.28816
C	-1.3377659124	-0.6207692277	-0.0503151122	-0.05624
C	-2.2112030691	-2.9267577875	 0.6559825719	 0.224806
N	-2.8813754363	-3.8583600277	 0.5195001413	-0.327883
H	-0.4549011791	 1.7068647146	 0.6978087944	 0.290822
H	 0.5633078671	-0.3019975574	-0.9741789642	 0.105167
H	 1.8199667483	-0.7066157174	 1.0610636915	 0.119911
H	 0.5587387984	 0.0294704112	 2.047346579	 0.119352
H	 0.5617496484	-2.793787655	 0.8641625713	 0.130696
H	 0.0308695808	-2.2895105528	 2.4715906385	 0.132557
H	-2.0092593211	-0.5220333224	-0.8982807895	 0.124521
