17
gdb 9476	3.02543	1.74102	1.53297	3.8128	68.82	-0.2499	0.0249	0.2748	911.9977	0.142848	-360.028316	-360.019904	-360.01896	-360.060909	30.996	
C	-0.4167164827	 1.5858432918	 0.0503101277	-0.423426
C	 0.0281009347	 0.1283279363	 0.0719034261	 0.150502
N	 1.2897405387	-0.1606566004	-0.659002769	-0.336017
C	 1.7455910114	-1.0966239169	 0.3948031021	-0.192858
C	 0.7244158895	-0.4449101056	 1.3754739055	-0.002453
N	 1.1884755993	 0.5846796352	 2.2782956468	-0.513588
C	-1.076982894	-0.7521271601	-0.3446979591	 0.250637
N	-1.9220847767	-1.4598479601	-0.696701022	-0.346777
H	 0.3971554306	 2.2258614161	 0.3922355362	 0.126761
H	-0.6933485744	 1.8799678993	-0.966573503	 0.128341
H	-1.2799022687	 1.7372605382	 0.7037530411	 0.137686
H	 1.1795884852	-0.547988699	-1.5903589977	 0.230771
H	 1.5254962934	-2.1541479148	 0.1980050782	 0.110789
H	 2.8045093488	-0.9931728505	 0.6558334926	 0.099078
H	 0.1035689827	-1.1444773529	 1.9353956746	 0.103391
H	 1.5333579368	 0.1695474407	 3.1369464092	 0.237898
H	 1.9578732154	 1.1057919725	 1.8687472708	 0.239265
