16
gdb 433	4.44325	3.84688	2.49161	1.3078	56.23	-0.2522	0.0751	0.3274	575.9494	0.142966	-271.622539	-271.615882	-271.614937	-271.652386	24.662	
C	-0.1200689384	 1.5256290286	 0.03503074	-0.381717
C	-0.0025929516	 0.0036394976	 0.0207245062	-0.003027
C	 1.1539046228	-0.5369500124	-0.8755456944	-0.222655
C	 2.0440281916	-0.6660470295	 0.391998035	-0.257707
C	 0.7477621131	-0.593538399	 1.2430391826	 0.150412
O	 0.7219038087	 0.2127624872	 2.3983670518	-0.430064
H	 0.8508159045	 2.0061473736	 0.1906018557	 0.11602
H	-0.5240492706	 1.8831612865	-0.918225182	 0.105203
H	-0.7822267103	 1.8609783087	 0.8379762496	 0.12506
H	-0.9867436877	-0.4365066433	-0.1663977496	 0.064325
H	 0.9204722852	-1.5075964942	-1.3209029371	 0.098118
H	 1.509524113	 0.1295041793	-1.6652045733	 0.097571
H	 2.6746906538	-1.5532841768	 0.491729277	 0.088647
H	 2.6567244196	 0.2250781103	 0.5532806166	 0.107002
H	 0.3747964616	-1.6052331688	 1.4619647751	 0.060987
H	 1.2415137447	-0.2211360378	 3.0821871069	 0.281824
