23
gdb 70342	2.59988	1.72507	1.44967	0.1628	87.99	-0.2465	0.0865	0.333	1045.5969	0.208903	-351.148446	-351.140815	-351.13987	-351.179748	32.705	
C	 0.0243221792	 1.4756689627	-0.0519597998	-0.471576
C	-0.0544700495	-0.0348503946	 0.023683411	 0.376998
C	-0.852795014	-0.6618348154	 1.1401966214	-0.357576
C	 0.6599466856	-0.7696495829	 1.1411363236	-0.055504
C	 1.3962433275	-2.0601619719	 0.7692200067	-0.233797
C	 1.327719492	-2.3525187993	-0.7400444458	 0.004491
C	 1.5814204303	-1.0523236339	-1.560582485	-0.221245
C	 0.0684422895	-0.7392160908	-1.328811727	-0.070909
C	-0.1363451162	-2.2776604084	-1.2497075588	-0.244735
H	 0.9247636227	 1.8021305727	-0.5859924461	 0.114136
H	-0.8417477076	 1.8909267086	-0.5818093665	 0.112158
H	 0.0493825597	 1.9236116571	 0.9465718954	 0.109489
H	-1.2978317763	 0.0095671747	 1.8682223764	 0.099725
H	-1.4452901614	-1.5496177778	 0.9536498544	 0.108156
H	 1.1615934842	-0.1580418423	 1.8857522241	 0.075681
H	 2.4496448542	-1.9576606559	 1.0574564225	 0.094649
H	 1.0046084681	-2.917013051	 1.333586299	 0.093671
H	 1.9132445921	-3.2404335078	-0.9920950458	 0.053508
H	 2.3135488271	-0.3353027673	-1.17700729	 0.087535
H	 1.8021042656	-1.2757077556	-2.6078641351	 0.090095
H	-0.4776956584	-0.1983424459	-2.1068415919	 0.052636
H	-0.2280327252	-2.7004230776	-2.2543087745	 0.092869
H	-0.9352654393	-2.6876669076	-0.6280185481	 0.089544
