17
gdb 29922	2.02035	1.91526	0.99553	4.2955	84.58	-0.2238	-0.0166	0.2072	1162.3851	0.13654	-380.935968	-380.926855	-380.925911	-380.970709	31.945	
C	-0.0333848095	 1.4451396004	 0.0550523786	-0.343963
N	-0.0264853549	-0.0050458205	 0.0109106964	-0.067447
C	 0.0489418568	-0.7754490671	-1.1083773323	-0.090389
C	 0.0997760507	-2.1045803902	-0.7378599916	-0.246117
C	 0.0574425662	-2.1620323127	 0.6750727822	 0.190765
C	 0.0770090455	-3.3815247992	 1.5429511874	-0.5145
C	-0.0175368608	-0.8429790451	 1.1151725037	 0.129182
C	-0.0853799269	-0.339523259	 2.4299520999	 0.20509
N	-0.1420637631	 0.0796748046	 3.5109412754	-0.374636
H	 0.9481840436	 1.8397567931	 0.3374145471	 0.152255
H	-0.2993176731	 1.8269396881	-0.9318727043	 0.144188
H	-0.7708558612	 1.7959455639	 0.7806230911	 0.164132
H	 0.0604936231	-0.3169979906	-2.0850651817	 0.13014
H	 0.1518192481	-2.9461241113	-1.4116633947	 0.107506
H	 0.9803615685	-3.9771749631	 1.3714223167	 0.134643
H	 0.0478184218	-3.1131711141	 2.6020181871	 0.144145
H	-0.7811422648	-4.0310522473	 1.3374425091	 0.135005
