18
gdb 40328	4.33848	1.28929	1.26563	1.8176	78.32	-0.2081	0.0683	0.2764	1057.2774	0.147938	-364.670614	-364.663522	-364.662577	-364.702484	28.483	
C	-0.1244196529	 0.6301387209	-0.762104726	-0.268597
C	 0.460471394	 1.583758768	 0.2475284661	-0.273448
C	 0.6435179039	 0.0934812255	 0.4229283087	-0.145498
C	-0.0580517371	-0.616227496	 1.5068790668	 0.403307
C	-1.4979615317	-0.4929077183	 2.0861262357	-0.183593
C	-1.0091610876	-1.1571305966	 3.3812072128	-0.10863
C	-1.4991151645	-1.9917067729	 2.2278835058	-0.006828
N	-0.0986888609	-2.1247475948	 1.6345551076	-0.229628
C	 0.407334241	-1.2610369932	 2.767618389	-0.124223
H	-1.2006886707	 0.4948388687	-0.7682198208	 0.116475
H	 0.3381359712	 0.560974942	-1.7400181241	 0.115928
H	 1.3256431256	 2.1736238474	-0.0333677719	 0.11476
H	-0.2232461983	 2.0912007463	 0.9200426707	 0.114332
H	 1.6333657271	-0.304898132	 0.2190286249	 0.09276
H	-2.3061430954	 0.2108259348	 1.944893649	 0.095549
H	-1.3823876376	-1.0413273344	 4.3885300094	 0.096178
H	-2.2829520378	-2.7332465382	 2.1373834344	 0.098467
H	 1.3966591216	-1.3891684171	 3.1919136519	 0.09269
