22
gdb 82537	2.27189	1.59902	1.37251	0.9628	86.7	-0.226	0.0906	0.3165	1106.481	0.193347	-367.156207	-367.147181	-367.146237	-367.189184	35.5	
C	-0.116414171	 1.5060383557	-0.006017598	-0.318921
N	 0.1004755999	 0.0708039679	 0.0981106237	-0.122895
C	 1.3841916086	-0.5518006239	-0.1507447418	-0.099888
C	 2.5779131653	 0.2780410412	 0.3667551181	-0.342381
C	 1.9163042529	 0.2711411308	 1.7584939407	 0.338376
C	 2.6284694359	 0.0610950163	 3.0615946962	-0.343098
C	 1.8867053619	 1.3527911595	 2.8020127288	-0.324027
C	 0.7523347482	-0.5699727364	 1.2278655084	 0.264601
C	 0.0305757954	-1.6465787159	 1.983692758	-0.500412
H	 0.698933318	 2.1331711598	 0.3780565543	 0.112308
H	-0.278913265	 1.7582978546	-1.0589830316	 0.118022
H	-1.0268967492	 1.7635191052	 0.5447209862	 0.118013
H	 1.4415527271	-1.336638859	-0.8985734705	 0.087013
H	 3.5123290364	-0.2893096869	 0.345904062	 0.104987
H	 2.7443119486	 1.2487726874	-0.1120804325	 0.096649
H	 2.2003852217	-0.6358694793	 3.775335127	 0.112523
H	 3.713729585	 0.083566468	 3.0603882776	 0.110285
H	 2.4717195223	 2.2493314414	 2.6212139854	 0.110999
H	 0.9616536711	 1.5284988995	 3.3422411691	 0.111196
H	-0.5986089161	-1.2227306062	 2.7765606571	 0.116589
H	-0.6205342036	-2.2054648765	 1.3070798393	 0.131744
H	 0.7332914163	-2.3430734432	 2.4527022926	 0.11832
