17
gdb 39894	2.82662	1.83669	1.62979	1.1733	71.38	-0.2379	0.0027	0.2406	893.7899	0.137626	-421.78871	-421.782072	-421.781128	-421.819397	27.383	
C	 0.0265849535	 1.4811924685	 0.0021554335	-0.29604
O	 1.1886224315	 0.6202659106	 0.0130050963	-0.299281
C	-0.0858928434	 0.0292757648	 0.0080601925	 0.522931
C	-0.5721850514	-0.9061836341	 1.1263564586	-0.208338
C	-2.0629722955	-0.9819797944	 0.6795722265	-0.069961
O	-2.0012354675	-0.9628973052	-0.7576723832	-0.283207
C	-0.5876080229	-0.8901181959	-1.1024808412	-0.037591
C	 0.059713287	-2.1983706815	-0.683870044	-0.070491
C	 0.0681220694	-2.2024379971	 0.6556180303	-0.077551
H	-0.1351301427	 2.0465211931	 0.9190161771	 0.11759
H	-0.1296572932	 2.0375827852	-0.920643087	 0.122174
H	-0.4057899165	-0.5982556519	 2.1570960346	 0.08058
H	-2.5600536952	-1.8963851418	 1.0221380033	 0.102281
H	-2.6318605159	-0.1114232991	 1.0288810607	 0.101755
H	-0.4989101083	-0.5663844076	-2.1371447549	 0.083473
H	 0.3561801839	-2.9937085276	-1.354256388	 0.106801
H	 0.3757394172	-3.0063213459	 1.3119807349	 0.104873
