21
gdb 55273	2.28243	1.36452	1.14816	2.3871	79.04	-0.2362	-0.01	0.2262	1196.6156	0.179454	-424.245072	-424.234957	-424.234013	-424.280093	37.485	
C	-0.4746948931	 1.3287882867	 0.7548098284	-0.481233
C	-0.0272921108	 0.1813104829	-0.1316721575	 0.364552
O	 1.0953954143	 0.1099432766	-0.582570461	-0.315859
C	-1.0608345836	-0.8936342286	-0.3819239071	-0.098182
C	-0.8023128641	-1.9755161336	-1.4534859127	-0.252447
C	-1.3812113567	-3.0387094378	-0.4829013133	-0.275907
C	-1.1759949252	-2.0358872635	 0.6937907958	 0.394612
C	 0.0946927491	-2.3053545045	 1.4933923697	-0.457013
O	-2.2799675653	-1.8036367385	 1.5473586945	-0.475184
H	 0.3833229865	 1.9237214813	 1.0707666435	 0.135805
H	-1.1695866197	 1.967913066	 0.1961876424	 0.141702
H	-1.0270831789	 0.9500035637	 1.6215998264	 0.147141
H	-2.0570409734	-0.4513278369	-0.4759107663	 0.089253
H	-1.3069751573	-1.845987106	-2.4120821842	 0.103381
H	 0.2687465157	-2.0915893011	-1.6306272963	 0.126073
H	-2.4486201855	-3.206694912	-0.6456249662	 0.106854
H	-0.8694523152	-4.0026694098	-0.4132100281	 0.093151
H	 0.9693575651	-2.3911118114	 0.843647897	 0.145183
H	 0.2832120918	-1.5046624138	 2.2154858805	 0.124
H	-0.0065484343	-3.2488843538	 2.0444633359	 0.107032
H	-2.2512815893	-2.4467091359	 2.2643825185	 0.277083
