23
gdb 60165	3.5843	0.77294	0.73858	2.5513	82.98	-0.2378	0.0723	0.3101	1682.6879	0.20365	-425.420661	-425.41024	-425.409295	-425.456851	38.312	
C	-0.0934034306	 1.4829946133	-0.2435079662	-0.406462
C	-0.0745535027	-0.0342589552	-0.0653299144	 0.141328
O	 0.7939912256	-0.4195743732	 1.0004871727	-0.432354
C	-1.4812027019	-0.6210203753	 0.1261254854	-0.220387
C	-1.479856832	-2.1388458875	 0.1280470001	 0.169045
C	-2.827821627	-2.8886367937	 0.1204153829	-0.333264
C	-2.2811688754	-3.5714610812	-1.152810926	 0.182579
C	-3.0924793251	-3.5044430531	-2.4301283859	-0.397808
O	-1.1350527102	-2.6851260976	-1.1724355115	-0.318719
H	 0.9254833943	 1.8644236776	-0.3530593589	 0.12403
H	-0.6704403209	 1.771912493	-1.1278045673	 0.117342
H	-0.5507718466	 1.9727097109	 0.6263387795	 0.102021
H	 0.3659105752	-0.4980760183	-0.955099223	 0.112031
H	 0.490720789	 0.0288422605	 1.7981593375	 0.273034
H	-1.8999245534	-0.2588142138	 1.0775048906	 0.080391
H	-2.1417171081	-0.2650029044	-0.6739456819	 0.0936
H	-0.7793495083	-2.5025740644	 0.8906089085	 0.083008
H	-3.039515558	-3.5329054991	 0.9751349479	 0.104043
H	-3.6897905014	-2.2418981139	-0.0678575072	 0.099947
H	-1.9550224348	-4.6057850148	-0.9687738428	 0.070718
H	-3.4437377181	-2.4842793131	-2.6139491598	 0.115158
H	-2.4855941448	-3.8176780771	-3.2857300399	 0.126731
H	-3.9618647548	-4.1683595598	-2.36667053	 0.113988
