21
gdb 65496	3.90763	0.98843	0.92005	2.7433	84.08	-0.2446	-0.0197	0.2248	1345.1427	0.18071	-387.081275	-387.072044	-387.0711	-387.115471	35.072	
C	-0.2200843116	 1.6503429045	-0.021365363	-0.454638
C	-0.0100245139	 0.1422827515	 0.00993998	 0.243171
C	 1.1781909235	-0.365315012	-0.8884324784	-0.356422
C	 2.0240270177	-0.5461298745	 0.37553613	 0.402485
C	 3.2041483812	-1.4437113258	 0.5853440014	-0.334587
C	 3.3752912336	 0.0590637513	 0.6231182057	-0.316064
C	 0.7881015572	-0.3749646277	 1.2637495136	-0.356433
C	-1.291839009	-0.6156024868	-0.2257782875	 0.119401
O	-2.3730258871	-0.1208956418	-0.4194715054	-0.258401
H	 0.7242501577	 2.1748829874	 0.1521184954	 0.114005
H	-0.6206865925	 1.9669006274	-0.9887564318	 0.127464
H	-0.9351742142	 1.9591189483	 0.7466452614	 0.127464
H	 0.9536644039	-1.3117185184	-1.3934667564	 0.102295
H	 1.5303139644	 0.3529493972	-1.6339691429	 0.109123
H	 3.2719771969	-1.9893414573	 1.521458703	 0.113342
H	 3.5969574104	-1.9812975773	-0.2721669227	 0.113343
H	 3.8825076436	 0.5367522171	-0.2094657487	 0.113598
H	 3.5573592351	 0.5286306396	 1.5848933379	 0.113597
H	 0.8550310696	 0.3362517358	 2.0916455169	 0.109124
H	 0.4021012316	-1.3253599227	 1.649629627	 0.102297
H	-1.1672134783	-1.7255902659	-0.2082234657	 0.065834
