17
gdb 9750	3.57342	1.75409	1.6329	2.4413	64.21	-0.2547	0.0244	0.2791	877.394	0.141682	-401.014611	-401.006652	-401.005708	-401.046885	29.167	
C	 0.0488969499	 1.4089463649	-0.0983821735	-0.257082
O	-0.0085121262	-0.0054371466	 0.0167989678	-0.263413
C	-1.2789694424	-0.5876094805	 0.0374942186	 0.452448
C	-2.1273524242	-0.2746584837	-1.1876535503	-0.456363
C	-1.0759547784	-2.0915384818	 0.3537918388	-0.22267
N	-1.5246634664	-2.273071518	 1.7407992507	-0.262226
C	-1.9964112787	-1.1519198659	 2.0911207096	 0.108008
O	-2.0053484757	-0.1157116459	 1.2147538843	-0.253576
H	 1.0896434203	 1.6868330338	 0.0800719368	 0.132793
H	-0.2385542338	 1.7543526667	-1.09969363	 0.11302
H	-0.5862452232	 1.897007711	 0.6487863858	 0.130432
H	-1.5922133002	-0.5731955199	-2.0936970791	 0.131989
H	-3.0695141179	-0.8251162931	-1.1370970132	 0.132276
H	-2.3632695669	 0.7900146365	-1.2517257111	 0.131713
H	-1.655985483	-2.7386362309	-0.3123151766	 0.113841
H	-0.0191940414	-2.3501456738	 0.2508934171	 0.132115
H	-2.4267365119	-0.9247892927	 3.0605464843	 0.136696
