15
gdb 25489	5.33787	1.01211	0.85079	3.2005	79.52	-0.2435	-0.0349	0.2086	1285.1279	0.114909	-416.870515	-416.863081	-416.862137	-416.903401	27.161	
N	-0.1661992492	 1.3190595507	 0.0109820248	-0.425765
C	-0.0148444375	 0.0679431509	 0.0033440804	 0.105009
O	-1.138768587	-0.7072577304	 0.0082991946	-0.230426
C	-1.0391898813	-2.0711914549	 0.0010572353	 0.487754
N	 0.1485576243	-2.6509105091	-0.009291808	-0.349777
C	 0.1810092088	-3.9901887003	-0.0158707651	 0.005594
C	-0.9553991933	-4.7843304499	-0.0123015226	-0.13836
C	-2.1991744528	-4.1483739011	-0.0012768826	-0.061924
C	-2.2534009322	-2.7653736377	 0.0055848944	-0.230497
H	 0.7469218541	 1.7706722886	 0.0056322	 0.23427
H	 0.9082141259	-0.5101661788	-0.0072990071	 0.141165
H	 1.1714272546	-4.4378861513	-0.0243581356	 0.117099
H	-0.87178082	-5.8642974832	-0.0179283393	 0.106609
H	-3.11619663	-4.7280354067	 0.0018950917	 0.116425
H	-3.1855846044	-2.2151668669	 0.0141677193	 0.122825
