17
gdb 125404	2.90532	1.34268	0.98769	3.3802	75.07	-0.2422	-0.0134	0.2289	1189.5414	0.13708	-417.979817	-417.971686	-417.970742	-418.013289	29.663	
C	 0.124833507	 1.5420809172	-0.0355188302	-0.512605
C	 0.0312184385	 0.049470345	-0.0079540226	 0.05408
C	 0.016384216	-0.8282748678	-1.0439007329	 0.006424
O	-0.0806773514	-2.093848668	-0.60815748	-0.171242
N	-0.1299917426	-2.079061615	 0.7785776922	-0.230943
C	-0.0713921709	-0.8149880261	 1.1308418093	 0.345496
C	-0.1199807667	-0.4344791683	 2.5590932919	-0.118615
C	-1.251509989	-0.9185192977	 3.408982047	-0.224446
N	 0.0972761352	-1.4553364916	 3.5944586339	-0.311836
H	 1.0075722867	 1.9004336833	 0.5057811181	 0.13994
H	 0.1943130361	 1.9103627337	-1.0622098612	 0.132266
H	-0.7507943744	 2.0099399463	 0.427545927	 0.13927
H	 0.0681042406	-0.7029267949	-2.1149283475	 0.150599
H	 0.3184197564	 0.5339971088	 2.785149969	 0.096497
H	-1.6174835913	-0.2939825399	 4.2194551382	 0.121436
H	-1.9984349993	-1.5373242965	 2.9201779077	 0.128656
H	 0.1706449591	-2.3623748183	 3.1368910002	 0.255022
