20
gdb 86820	4.53885	0.81413	0.76825	2.1591	77.3	-0.2186	0.0133	0.2318	1558.5701	0.168908	-440.297003	-440.287167	-440.286223	-440.333143	34.493	
C	 0.0261918725	 1.4785820452	 0.1579011321	-0.316249
N	-0.0610108392	 0.0363661018	 0.1535973868	-0.072297
C	-1.3414601795	-0.5956708586	 0.5294951917	-0.207408
C	-0.5352049784	-1.7057690902	 1.2228814064	 0.13603
C	 0.6537166457	-0.7219847773	 1.2011717489	-0.185786
O	-1.0695969941	-2.0825895226	 2.4897050624	-0.247394
C	-0.3659793446	-3.0201747083	 3.166104048	 0.425166
C	-1.0490417215	-3.3648360632	 4.4668412854	-0.479121
O	 0.6627184139	-3.4987337499	 2.7610776567	-0.35084
H	 1.0544399198	 1.7879356477	-0.0573597595	 0.123182
H	-0.6186815884	 1.8922356153	-0.6248571104	 0.121498
H	-0.2732278293	 1.9305747481	 1.1233658192	 0.089271
H	-1.917379564	-0.0202966994	 1.2729964775	 0.093268
H	-1.9947602778	-0.8645812343	-0.3066072702	 0.105867
H	-0.3654436645	-2.5951729105	 0.6156506777	 0.110703
H	 1.6377769443	-1.1043424898	 0.9184581918	 0.117919
H	 0.728763112	-0.1833205836	 2.1606126955	 0.086538
H	-1.1987058419	-2.4619943826	 5.0652279046	 0.149454
H	-2.037268942	-3.7898553329	 4.2680222569	 0.151117
H	-0.4414424932	-4.082532695	 5.0164817886	 0.149083
