20
gdb 82792	2.54386	1.98578	1.61955	1.6594	81.72	-0.2064	0.0116	0.218	940.3781	0.174016	-365.983818	-365.976762	-365.975818	-366.014889	29.294	
C	-0.2974824318	 1.5854165811	 0.0596346245	-0.417949
C	-0.008457248	 0.0941298014	-0.01183127	 0.012962
C	 0.7651126724	-0.5145028782	-1.2129099174	 0.007253
C	 1.9727649058	 0.2365429168	-1.8235013696	-0.268302
C	 2.8492542058	-0.4544852447	-0.7225835697	-0.031416
C	 3.1866691822	 0.4078265251	 0.4600139764	-0.077763
C	 2.2081010202	 0.3636697472	 1.3636597121	-0.072662
C	 1.1036111633	-0.5462062091	 0.9058926903	-0.066862
N	 1.6713694878	-1.2906291252	-0.2791848399	-0.131906
H	 0.6171427407	 2.1816366758	-0.0073030239	 0.120166
H	-0.9620027087	 1.8937515511	-0.755225879	 0.11516
H	-0.7919349863	 1.8428831191	 1.0029912079	 0.114418
H	-0.9450184998	-0.4588353511	 0.1152078585	 0.078607
H	 0.1619961911	-1.0917893487	-1.9196087879	 0.068704
H	 2.2028463127	-0.092926714	-2.839742689	 0.104483
H	 1.9522129448	 1.3283617064	-1.8058763069	 0.102702
H	 3.6941735585	-1.0381889928	-1.1016715258	 0.074268
H	 4.0920651653	 1.0004837176	 0.5236096017	 0.098255
H	 2.1765458176	 0.9139619167	 2.2968929576	 0.098197
H	 0.7178654864	-1.1933652747	 1.7007409701	 0.071684
