17
gdb 54418	2.53408	1.4884	1.1923	1.9432	71.21	-0.2316	-0.0201	0.2115	1084.9397	0.132693	-458.93542	-458.92632	-458.925375	-458.96955	33.058	
C	-0.0659991203	 1.3966133306	 0.3027939733	-0.482415
C	-0.012372476	-0.0481389924	-0.1427043427	 0.30138
O	 1.0115880848	-0.6023188824	-0.4969262479	-0.338207
C	-1.2800320845	-0.7975954304	-0.0915655583	 0.260801
C	-1.5289471661	-2.1102131184	-0.8170564078	-0.405925
C	-1.6201273123	-2.11099842	 0.6673228384	 0.314347
O	-0.9154425514	-2.892680702	 1.5418635802	-0.439635
C	-2.849765845	-1.3480582907	 1.1346862369	-0.132746
O	-2.5147491132	-0.2001436923	 0.3071685101	-0.322643
H	 0.9336855112	 1.8293506201	 0.2561818826	 0.137025
H	-0.7531997645	 1.9630063143	-0.3353299965	 0.14887
H	-0.4642097867	 1.4658569498	 1.3203043302	 0.145685
H	-2.4122745576	-2.2005873308	-1.4452632214	 0.123314
H	-0.6117889008	-2.5331930743	-1.217813728	 0.144976
H	-0.3294090528	-3.4743074769	 1.0468639519	 0.304139
H	-3.8314645844	-1.7685815239	 0.8902096761	 0.114835
H	-2.8008066205	-1.0899283801	 2.1976775028	 0.126199
