18
gdb 78430	5.18714	1.2587	1.22842	0.5551	74.97	-0.2259	0.0772	0.3032	1042.9171	0.149506	-401.84872	-401.842083	-401.841139	-401.879309	28.089	
O	-0.10303393	 1.3995017951	 0.0418761634	-0.436139
C	 0.0015119294	 0.0058900423	 0.0353243694	 0.071087
C	-1.3222051751	-0.7121069148	 0.0414660062	-0.095227
C	-0.4678480525	-0.7096784887	-1.21106758	-0.0701
N	-0.0965708169	-2.1196786748	-1.4284011749	-0.146224
C	 0.1307180634	-2.7429020834	-0.0415983427	-0.026188
C	-0.4659062764	-4.0575615131	-0.5673972431	-0.248693
C	-1.3634404076	-2.9223230924	-1.0751070546	-0.009454
C	-1.2861289912	-2.2036373467	 0.3256763561	-0.04861
H	 0.6260570467	 1.7538271401	-0.4784560902	 0.288132
H	 0.8346532801	-0.3910671615	 0.6135008612	 0.08912
H	-2.2329034596	-0.1354234527	 0.1453279178	 0.098828
H	-0.6998412963	-0.1296380542	-2.0961604108	 0.094948
H	 1.0716673899	-2.6089878472	 0.4938848312	 0.081912
H	 0.1232878052	-4.5792785777	-1.3223321858	 0.109031
H	-0.8933467036	-4.7337920483	 0.1746424266	 0.096747
H	-2.2122729857	-2.9616194463	-1.7608748711	 0.080428
H	-1.8197418697	-2.5998187356	 1.1923401612	 0.070406
