22
gdb 10852	4.38454	1.34733	1.08937	0.228	84.84	-0.2251	0.0364	0.2615	1168.7612	0.20123	-313.106753	-313.09825	-313.097306	-313.139166	33.027	
C	-0.0159821462	 1.5788923648	 0.0001068493	-0.403792
C	 0.0213387991	 0.0488424553	-0.0101764097	 0.042646
C	 0.7364765568	-0.5066805464	-1.249290834	-0.194334
C	 0.6608156545	-2.0378763255	-1.3023712813	-0.298952
C	 0.9652151348	-2.6912638588	 0.0278817158	 0.331416
C	 1.2369135628	-4.170807668	-0.0074294109	-0.473848
C	 0.9816714691	-1.9872410547	 1.1625293883	-0.153278
C	 0.6853309234	-0.5132138373	 1.2577943754	-0.238922
H	 0.9983496123	 1.9956862635	-0.0100120802	 0.11062
H	-0.5448560318	 1.9704845846	-0.8754767217	 0.107804
H	-0.5212274978	 1.959907041	 0.8944614189	 0.108203
H	-1.0145174247	-0.3207370135	-0.0326394543	 0.069658
H	 0.3087875283	-0.0767775712	-2.1626926881	 0.085964
H	 1.7895661226	-0.1939666905	-1.2198585461	 0.092917
H	-0.3391358934	-2.3547659772	-1.6372879859	 0.102
H	 1.3521728458	-2.4227884815	-2.0643729798	 0.094801
H	 2.1110380289	-4.4001748304	-0.6311176165	 0.118072
H	 1.4165268409	-4.5748021602	 0.9926076124	 0.116299
H	 0.3927352416	-4.7178179597	-0.4482444739	 0.118211
H	 1.2211586151	-2.4951392267	 2.0954627052	 0.069942
H	 1.6174116644	 0.0393314939	 1.4597900899	 0.098426
H	 0.0446007436	-0.3207569015	 2.1290253673	 0.096144
