18
gdb 12622	2.92968	2.09131	1.36117	3.4909	73.79	-0.2343	-0.0424	0.1919	933.3178	0.154109	-347.848767	-347.840884	-347.83994	-347.881032	29.787	
C	 0.0109315089	 1.6021509081	-0.1799293107	-0.392031
C	 0.0093113291	 0.0736526656	 0.0080904149	-0.059796
C	 0.6750156111	-0.6138436423	-1.1635994604	-0.044962
C	 1.7843066523	-1.2853221971	-0.8366393829	-0.186101
C	 2.0260507477	-1.1816074219	 0.6201529787	 0.37844
O	 2.9858970746	-1.5856411472	 1.236243241	-0.341923
C	 0.8074035627	-0.4621092996	 1.23315254	-0.107517
C	 1.2042405058	 0.5163040494	 2.3384958576	-0.403929
H	 1.0289785533	 1.9928074165	-0.2706866292	 0.126012
H	-0.5319588427	 1.8747629797	-1.0908808188	 0.115413
H	-0.474490992	 2.1038489133	 0.6617133152	 0.124348
H	-1.0400145033	-0.243879645	 0.0690413895	 0.086868
H	 0.2780385576	-0.5154734856	-2.1698094976	 0.111678
H	 2.4493698503	-1.8193681471	-1.5032535013	 0.114584
H	 0.2143781634	-1.2656100487	 1.6917577134	 0.10751
H	 1.766050974	 1.368313331	 1.9455232585	 0.120404
H	 0.3295163647	 0.9018089564	 2.870509948	 0.110919
H	 1.8478541324	-0.0006781355	 3.0549838241	 0.140083
