14
gdb 127570	3.29916	1.5012	1.03843	2.6091	70.61	-0.2508	-0.078	0.1728	1068.5314	0.101341	-470.031639	-470.02385	-470.022906	-470.064396	28.165	
C	-0.1756585298	 1.4089312769	-0.0175426228	-0.307271
N	 0.0293123464	-0.0354979313	 0.0150490005	-0.067216
N	 0.1910777515	-0.6550391105	-1.1543235227	-0.137694
C	 0.3754163979	-1.9326618124	-1.1718723044	-0.139464
C	 0.4185781648	-2.7574704653	 0.0295742224	 0.404443
O	 0.5837593434	-3.9397395019	 0.0923480255	-0.30846
O	 0.2420044063	-2.0371348447	 1.2096961707	-0.259025
C	 0.0457105292	-0.6820214827	 1.2488437148	 0.496361
N	-0.113572165	-0.0309257006	 2.3196754629	-0.549973
H	 0.6127938169	 1.913817084	 0.5452689949	 0.157916
H	-0.1535077035	 1.707311972	-1.064139098	 0.153176
H	-1.1360326869	 1.6631392505	 0.4367711955	 0.157898
H	 0.5043815945	-2.4142031533	-2.1321299389	 0.155848
H	-0.0746689958	-0.6510588308	 3.1255660096	 0.243461
