21
gdb 86367	2.49233	1.13654	0.89258	2.438	79.33	-0.2474	-0.0266	0.2208	1358.8099	0.179837	-424.2262	-424.216149	-424.215205	-424.262568	35.802	
C	-0.7245887373	 1.2464719082	-1.097663955	-0.40946
C	 0.0824596727	-0.0103203206	-0.8399934662	 0.159689
O	 1.4364016061	 0.0953236002	-1.3392311455	-0.308441
C	 1.9964369791	-0.406591976	-0.1065987068	 0.146211
C	 3.1430615659	 0.4466287667	 0.3979085577	-0.403755
C	 0.6032065143	-0.3641769543	 0.58524871	-0.10454
C	 0.3919211991	 0.6470521016	 1.7176206353	-0.298244
C	-1.0008066511	 0.5388169463	 2.2989415769	 0.161709
O	-1.8071096424	 1.4313267278	 2.3431253483	-0.237992
H	-0.2356913114	 2.1313957421	-0.6828235539	 0.123906
H	-0.8292786042	 1.3952048716	-2.176968608	 0.127636
H	-1.7259036705	 1.166933354	-0.6631370791	 0.130671
H	-0.4255993748	-0.8702925048	-1.3011786533	 0.073135
H	 2.3449998239	-1.4419610094	-0.2396447816	 0.072632
H	 2.8360278279	 1.4839445356	 0.5549429263	 0.122172
H	 3.5414361139	 0.0487009778	 1.3377070166	 0.114827
H	 3.9520282964	 0.4416827389	-0.3392726821	 0.130841
H	 0.2713957618	-1.3494908323	 0.9272848958	 0.076938
H	 1.0983244136	 0.4133686711	 2.5275936481	 0.120696
H	 0.5640633134	 1.679204463	 1.4063490408	 0.128548
H	-1.2476266064	-0.4747200174	 2.6970446158	 0.072819
