18
gdb 79073	2.40579	1.94806	1.4723	2.129	74.73	-0.2391	-0.0034	0.2357	962.2903	0.149465	-398.082337	-398.074732	-398.073788	-398.113938	30.244	
C	-0.1319496891	 1.5719244496	-0.0275142338	-0.527553
C	 0.01787082	 0.0866122608	 0.01228413	 0.367261
C	 0.4756927214	-0.9211097948	-0.9726747615	-0.080466
C	 1.3366315245	-1.6361629187	 0.07461553	-0.008262
N	 2.7006098708	-1.1311844369	-0.0061637262	-0.522557
C	 0.5186572923	-0.850454351	 1.1653984948	-0.08572
N	-0.6192497961	-1.7074469232	 1.5282699911	-0.193761
C	-1.350838063	-1.7048266914	 0.4873637508	 0.026207
N	-0.9842666001	-0.8238704924	-0.5845200153	-0.206699
H	 0.8351793439	 2.0549981246	 0.1442196715	 0.134791
H	-0.5115382848	 1.8897455217	-1.0026188637	 0.134401
H	-0.8302666163	 1.9187807902	 0.7420101844	 0.129199
H	 0.6830400078	-0.8378861228	-2.033904041	 0.099713
H	 1.2450155115	-2.7295967735	 0.146417996	 0.065623
H	 3.246096692	-1.5042928085	 0.7658561588	 0.232577
H	 3.1471719139	-1.4630100103	-0.8566053618	 0.230439
H	 1.0703652092	-0.4587103513	 2.0173285536	 0.079729
H	-2.2444826679	-2.3098033321	 0.3713212123	 0.125077
