15
gdb 91293	3.16904	1.4846	1.21989	4.0838	60.2	-0.2787	0.0283	0.3069	998.0291	0.113731	-494.934605	-494.927533	-494.926589	-494.966544	27.04	
O	 0.4895349098	 1.0985101572	-0.6306212791	-0.425725
C	 0.1067871897	-0.1021403	-0.0369906732	 0.138133
C	 0.1045770788	-0.2356240154	 1.5251758679	-0.313026
C	-1.3240922403	-0.8351905493	 1.4511933721	 0.08287
O	-2.339828867	-0.0564102212	 2.0796567163	-0.24393
C	-2.7895895616	 0.8878215347	 1.2161069852	 0.492349
O	-3.563859795	 1.7475052927	 1.4802091411	-0.358843
O	-2.2190507833	 0.7188610542	-0.0193059675	-0.270681
C	-1.4071844692	-0.4573339301	-0.0472035853	 0.029405
H	-0.2170847085	 1.7381384256	-0.4753768764	 0.296806
H	 0.6949702681	-0.8969954888	-0.5045870728	 0.104007
H	 0.8789625527	-0.8710616803	 1.9573180796	 0.121974
H	 0.1119364889	 0.7304962466	 2.0357267665	 0.129737
H	-1.4503511264	-1.8766305563	 1.7410976138	 0.11252
H	-1.7974466068	-1.1466685595	-0.7975965582	 0.104404
