18
gdb 111831	2.4504	1.45288	1.05278	2.5236	71.69	-0.2384	-0.033	0.2055	1152.0107	0.147268	-439.041383	-439.032843	-439.031899	-439.075486	31.236	
O	 0.9629918441	-0.8178147671	 0.574154471	-0.414894
C	 0.0942142875	 0.0469012998	-0.1360208485	-0.084388
C	-1.3515795794	-0.4114915279	-0.0616234893	-0.110415
N	-2.1195983261	-0.329687424	 1.2392540991	-0.164254
C	-2.0111867614	 0.9907684368	 1.9629036015	-0.183358
C	-3.3811394651	 1.4643490004	 1.413394699	-0.247176
C	-3.3429048849	 0.212195085	 0.513616572	-0.090516
C	-2.4945145168	 0.3468732319	-0.766437134	 0.352133
O	-2.6375370262	 0.8833636256	-1.8243761454	-0.291689
H	 0.6188008158	-0.9075516102	 1.4692034069	 0.293544
H	 0.2009942338	 1.089371856	 0.1983135428	 0.09792
H	 0.4084712793	 0.018076061	-1.1842095466	 0.133543
H	-1.3801586262	-1.4632722302	-0.3802686942	 0.125841
H	-1.9572312041	 0.8509095075	 3.0452737558	 0.117415
H	-1.1655568607	 1.6142746514	 1.6564501065	 0.111293
H	-4.1847042159	 1.4343633119	 2.1509608491	 0.122523
H	-3.4091483138	 2.4256570535	 0.8972164629	 0.125465
H	-4.2316491598	-0.4201256012	 0.4385061115	 0.107011
