13
gdb 27598	3.77172	1.29872	0.96607	2.4318	76.8	-0.2564	-0.0588	0.1975	1124.4129	0.090541	-411.821118	-411.813233	-411.812289	-411.853968	28.417	
N	-0.0192679323	 1.3259455832	 0.0080563548	-0.559501
C	 0.0053323279	-0.0205604655	 0.0008561023	 0.453175
N	-1.1784385017	-0.6587108297	 0.003945611	-0.33796
C	-1.0853758354	-1.9882994648	-0.0034542305	 0.169279
N	 0.0551892933	-2.6994984215	-0.013477648	-0.301411
C	 1.1537298259	-1.9435033916	-0.01546055	 0.065457
N	 1.2138140797	-0.6188905091	-0.0088249425	-0.302727
C	-2.3141518735	-2.727589481	-0.0009389535	 0.267336
C	-3.3421529173	-3.3503928066	 0.0011503772	-0.330848
H	 0.8460338871	 1.8353234715	 0.0060506233	 0.273719
H	-0.9021406208	 1.8043971651	 0.0153646291	 0.274233
H	 2.1053154205	-2.4717942266	-0.0234420742	 0.126963
H	-4.2496953733	-3.9026768132	 0.0030192708	 0.202286
