21
gdb 72249	2.37765	1.6975	1.44754	1.7819	82.03	-0.2311	0.0873	0.3184	1049.4655	0.183122	-387.076702	-387.068368	-387.067424	-387.10899	32.926	
C	-0.0789992093	 1.5004266335	 0.0392332032	-0.504453
C	 0.0151154887	 0.0025178172	-0.0171348566	 0.287475
C	 0.8633310601	-0.7952484906	-1.0134382593	-0.30438
C	-0.0898201874	-2.0086363144	-0.7721114872	 0.032809
O	 0.4179901869	-2.8995376108	 0.2109745793	-0.266002
C	 0.5528829218	-2.1353672131	 1.4156680235	-0.107019
C	-0.2863595878	-0.8829052385	 1.1910923391	-0.174859
C	-1.091457094	-1.0543018728	-0.0668711352	 0.302278
C	-2.5801325117	-0.9771921977	-0.2222660406	-0.525868
H	 0.8506670824	 1.9428823119	 0.4172546136	 0.121103
H	-0.265009829	 1.9241153729	-0.9546356294	 0.116183
H	-0.8898946045	 1.828090663	 0.6987454852	 0.115318
H	 0.7622010895	-0.3939900008	-2.0271895659	 0.09421
H	 1.9248707681	-0.9618222916	-0.7978122321	 0.091691
H	-0.4077480698	-2.5920416828	-1.6360374464	 0.078767
H	 0.1790495766	-2.7348666124	 2.2542515671	 0.102257
H	 1.6117061205	-1.9092376205	 1.6054461556	 0.094345
H	-0.7443463612	-0.3929089192	 2.0436705585	 0.082951
H	-2.9979863123	-0.1560231944	 0.3699907794	 0.118764
H	-2.8713977722	-0.8116628381	-1.2660083915	 0.117817
H	-3.0623093955	-1.9032034709	 0.1128687695	 0.126613
