18
gdb 88243	3.45501	0.7246	0.62984	1.4241	87.59	-0.2397	0.0318	0.2714	1761.1462	0.145206	-364.721844	-364.711864	-364.710919	-364.759105	35.409	
C	-0.5813095193	 1.3561555843	 0.4637746492	-0.396038
C	-0.0273825567	-0.0032295651	 0.1226959594	 0.020964
N	 1.3568324717	-0.0580184042	-0.3561739539	-0.322748
C	 1.0239844583	-0.6782788148	 0.953021414	-0.257998
C	 1.5818409016	-0.0834502044	 2.1361983059	 0.143186
C	 2.033208942	 0.3890132091	 3.1471868023	 0.108058
C	 2.598369771	 0.9703897899	 4.3659768927	-0.495378
C	 1.6083683666	 1.6319826854	 5.2190002655	 0.318046
C	 0.8066512038	 2.1777946869	 5.9265156791	-0.445133
H	 0.1769183629	 1.9656525271	 0.9595007633	 0.140858
H	-0.9041746393	 1.8768093834	-0.4438736624	 0.118775
H	-1.4446061644	 1.2653323683	 1.1312019185	 0.119632
H	-0.7379666136	-0.6854381082	-0.343527652	 0.086033
H	 1.469214747	-0.7902205914	-1.0528634618	 0.233324
H	 0.9740244878	-1.7652619582	 0.9808787722	 0.104278
H	 3.1069692668	 0.1864239486	 4.9442527897	 0.160713
H	 3.3825261991	 1.6915391033	 4.0963237615	 0.163798
H	 0.0938136448	 2.6596305	 6.5486011668	 0.199631
