16
gdb 34605	3.8202	1.18681	0.98597	4.5404	76.48	-0.2664	-0.0404	0.226	1161.498	0.125989	-400.766364	-400.758934	-400.75799	-400.79851	28.214	
N	-0.0164864938	-1.2282506853	-0.2800473155	-0.333903
C	-0.064064551	-0.086985727	-0.0871787624	 0.216432
C	-0.0729945913	 1.3227721186	 0.1540486846	 0.169533
C	-1.2205685163	 2.0077912464	 0.0580769971	-0.12159
C	-1.3446534406	 3.4855802987	 0.2724968111	-0.296125
C	-0.1049367701	 4.1294341699	 0.847929199	 0.047808
O	 0.3411653847	 3.6162880252	 2.1062931768	-0.252529
C	 1.1556811836	 3.3820014013	 0.9548561698	 0.044168
C	 1.2641472974	 1.9484848377	 0.4909769975	-0.335947
H	-2.1299723325	 1.4734359227	-0.199594306	 0.120195
H	-1.5887734976	 3.9708493773	-0.6842089278	 0.130401
H	-2.201630255	 3.69078961	 0.9286544274	 0.13669
H	-0.062594295	 5.2157713254	 0.7690720338	 0.097922
H	 2.0936247972	 3.9374729152	 0.9518977129	 0.098663
H	 1.7660673065	 1.3521191203	 1.2630232706	 0.143605
H	 1.9181697436	 1.9077429436	-0.3903624591	 0.134678
