15
gdb 9495	3.16756	1.67046	1.52221	2.1603	61.9	-0.2705	0.0021	0.2726	894.3719	0.11705	-399.787092	-399.778857	-399.777913	-399.819888	29.339	
C	-0.3332288091	 1.4650697405	 0.0984139982	-0.402876
C	 0.1721883746	 0.0486322986	-0.0501708781	 0.122603
O	 1.407252164	-0.0449477116	-0.7961601597	-0.28244
C	 2.041998806	-0.82622433	 0.2249325318	-0.110942
C	 0.8385738508	-0.6310063848	 1.1897921942	 0.184098
O	 1.0389842278	 0.2871629949	 2.2359462062	-0.44892
C	 0.2003219165	-1.8580998441	 1.676843902	 0.229548
N	-0.2815983234	-2.8280292594	 2.0809662334	-0.330626
H	 0.4047665168	 2.0939743184	 0.59805656	 0.141648
H	-0.5375341523	 1.8744949054	-0.895464564	 0.133519
H	-1.2621301388	 1.4809404532	 0.6764990938	 0.13118
H	-0.5943239401	-0.597694764	-0.4966138205	 0.097009
H	 2.2241193155	-1.8616253653	-0.0863870343	 0.119408
H	 2.9694591019	-0.3708367774	 0.5894784825	 0.117332
H	 1.5133000197	-0.1529898744	 2.9505755348	 0.299459
