15
gdb 31098	2.36519	1.49071	0.92321	1.7713	65.81	-0.1807	0.0359	0.2165	1202.1551	0.111892	-491.096316	-491.087324	-491.08638	-491.130686	31.949	
C	 0.0461684383	 1.4292358296	-0.0115941152	-0.23368
O	-0.0237209315	 0.0076278825	-0.0290294871	-0.274293
C	 0.5699529011	-0.6011076799	-1.0714814597	 0.26073
C	 0.6828308498	-1.9370348649	-1.2600414717	 0.183387
O	 0.4082998752	-3.0341624676	-0.5366282134	-0.412356
O	 1.3641524998	-2.1119744015	-2.4755682744	-0.199579
C	 1.5914887434	-0.8610754103	-2.9035346106	 0.458824
N	 2.1853425593	-0.721679676	-4.1352206867	-0.584895
N	 1.1563697868	 0.0862311521	-2.126456933	-0.423871
H	 1.0838362016	 1.7776727831	 0.0227658339	 0.127967
H	-0.438125092	 1.8642656102	-0.8917066279	 0.13116
H	-0.4787199164	 1.7388080504	 0.8936453831	 0.126525
H	-0.4284874582	-3.4218545103	-0.8241983633	 0.3071
H	 2.8357751209	-1.4578792138	-4.3702930029	 0.26431
H	 2.5625532819	 0.2035423864	-4.280142001	 0.268672
