16
gdb 106660	2.76568	1.30712	1.05337	1.157	67.48	-0.2631	0.0117	0.2748	1143.5281	0.12247	-474.976757	-474.967993	-474.967049	-475.010448	32.335	
O	 0.0401573237	 1.3529135832	-0.2337969631	-0.406236
C	-0.0047681713	-0.0089692347	 0.1566553353	-0.178151
C	-1.3739025231	-0.591182097	 0.0389124781	 0.380942
C	-2.1188932212	-1.068159479	-1.1647457607	-0.386807
C	-1.9488952467	-1.9872997654	 0.0571098803	 0.18273
O	-1.3072397705	-3.1969662728	 0.0206948833	-0.440838
C	-2.8350769122	-1.4672982109	 1.152344324	 0.387788
N	-3.6585414788	-1.971893829	 1.9468230029	-0.560667
O	-2.3653048279	-0.1566016353	 1.0282975938	-0.316901
H	-0.5272075186	 1.8445798923	 0.3699748319	 0.295048
H	 0.6703986953	-0.5505067701	-0.5125640677	 0.130028
H	 0.3576114948	-0.1480398772	 1.1856119266	 0.110758
H	-3.0807576866	-0.6351662858	-1.4199689979	 0.130868
H	-1.4946652651	-1.3703977373	-2.0008755465	 0.134411
H	-1.8989295929	-3.8467039338	-0.3759432466	 0.303752
H	-4.0375964089	-1.2748990672	 2.5897671861	 0.233274
