27
gdb 118215	3.30553	0.5962	0.57756	1.3969	93.14	-0.261	0.0773	0.3383	2105.4544	0.249376	-390.701071	-390.688808	-390.687864	-390.739603	44.033	
C	-0.1030180371	 1.5273446423	 0.1550637551	-0.380538
C	-0.0881239475	 0.0002505053	-0.003339584	 0.026318
C	-1.5170141434	-0.5355314384	-0.1747038311	-0.385887
C	 0.7903167946	-0.4620794923	-1.1820784006	-0.163991
C	 2.2867563645	-0.0908277287	-1.140219852	 0.006513
C	 2.9918127889	-0.6843855901	 0.0894242456	-0.391304
C	 2.9555720216	-0.5304669068	-2.4558991569	-0.162522
C	 4.3798674536	-0.025223908	-2.6558751528	-0.087569
O	 4.7867242175	-0.4011092563	-3.9653136501	-0.421536
H	 0.8900483099	 1.9306541608	 0.3746855271	 0.112841
H	-0.4631560298	 2.0108410962	-0.7614636187	 0.10992
H	-0.7682525468	 1.8291159756	 0.9709869332	 0.107836
H	 0.3142977593	-0.4323404947	 0.9224079727	 0.072981
H	-1.9801616137	-0.1323518208	-1.0835061706	 0.110466
H	-1.527473585	-1.6277939925	-0.2543865025	 0.108411
H	-2.1511264452	-0.2542835383	 0.6727334245	 0.106571
H	 0.7094814034	-1.5552106716	-1.2688713286	 0.086001
H	 0.358420914	-0.0554981671	-2.1077418787	 0.086375
H	 2.3671084899	 1.0039939073	-1.0821207956	 0.070963
H	 4.0487790587	-0.4051590958	 0.1259112112	 0.111205
H	 2.535420876	-0.3402487876	 1.0218736785	 0.115284
H	 2.937777451	-1.7799443659	 0.0769058772	 0.111778
H	 2.9581272801	-1.6261377501	-2.5268776294	 0.098513
H	 2.3625645475	-0.1683388002	-3.30452665	 0.101482
H	 4.4039999256	 1.0708219307	-2.5322239652	 0.08102
H	 5.0564344804	-0.4525860557	-1.9004147511	 0.085249
H	 5.700895952	-0.1282147274	-4.0847977171	 0.283622
