18
gdb 69923	3.08078	1.76821	1.66163	1.5186	73.6	-0.2219	0.0146	0.2365	904.6261	0.149446	-401.904075	-401.897167	-401.896223	-401.934872	28.858	
C	-0.0602068943	 1.5097253061	 0.0288034405	-0.493159
C	 0.0650681241	 0.0131557115	 0.0359276455	 0.421219
O	-0.7835334213	-0.712692448	 0.9402667902	-0.27743
C	 0.6399884796	-0.8372148463	 1.0765971565	-0.049697
C	 1.3274406163	-2.0068051317	 0.2739439352	-0.12322
N	 1.8200253421	-1.2809875611	-0.9403572829	-0.281571
C	 0.4611157276	-0.7617893146	-1.2914214083	-0.163585
C	-0.3016350741	-2.075541592	-1.323599899	-0.028791
C	 0.2291489014	-2.8380806444	-0.3693196798	-0.029476
H	 0.8190257915	 1.9737323877	-0.4314919121	 0.121016
H	-0.9390887667	 1.8221940714	-0.5463775206	 0.130507
H	-0.1665552601	 1.894158676	 1.0463718096	 0.132278
H	 1.0623981721	-0.4819898341	 2.0128291906	 0.09703
H	 2.1086391046	-2.5345017472	 0.8202183712	 0.066356
H	 2.398305596	-0.4950512408	-0.6336366238	 0.203643
H	 0.4435833373	-0.1451080151	-2.1901523094	 0.063153
H	-1.1591932623	-2.2784060975	-1.9490257838	 0.105549
H	-0.0926653538	-3.8107709598	-0.0260238696	 0.106179
