19
gdb 111887	2.57659	1.45827	1.30308	2.6901	70.54	-0.2347	0.0642	0.2988	1065.5671	0.160635	-460.12072	-460.112558	-460.111614	-460.153861	31.026	
O	 0.0295047131	 1.3204395389	-0.4727512654	-0.427322
C	-0.0704980004	 0.2144648626	 0.4080586255	-0.091
C	-1.3872610335	-0.5315729495	 0.272679956	-0.115331
C	-1.7786552955	-1.0914702679	-1.0784057407	 0.022588
O	-0.8339897918	-0.9871685803	-2.1138931561	-0.261486
C	-0.3067606225	-2.2740376694	-2.4312438182	-0.100437
C	 0.4768766509	-2.8097568304	-1.2452482238	-0.066158
O	-0.2715851209	-2.8087836179	-0.028419204	-0.264324
C	-1.433875019	-2.0342295647	 0.0391483678	 0.060632
H	-0.044812489	 0.9535637351	-1.362059288	 0.291091
H	 0.7697653553	-0.4805932884	 0.2801292862	 0.099266
H	 0.0118195497	 0.6204121981	 1.4209689423	 0.11103
H	-2.2137570843	-0.1267255659	 0.8496208805	 0.093418
H	-2.807315486	-1.0059516817	-1.4243307325	 0.096597
H	-1.1246663446	-2.9538313818	-2.7092310819	 0.106446
H	 0.3534687186	-2.1494372641	-3.2935536577	 0.119438
H	 0.7911706248	-3.8434886772	-1.430005172	 0.111329
H	 1.37980917	-2.1983068318	-1.1101383763	 0.109327
H	-2.2371235148	-2.5914596939	 0.5125518484	 0.104894
