13
gdb 24480	4.06302	1.72996	1.21334	1.9266	75.37	-0.232	-0.0675	0.1645	918.6226	0.093317	-415.652876	-415.647098	-415.646154	-415.682968	23.022	
O	-0.021447923	 1.3173154679	 0.0093648092	-0.167186
C	 1.1336832229	 2.0394499126	 0.0021766581	 0.096876
N	 2.3279557507	 1.5773353161	-0.0117506849	-0.324626
C	 2.4377954778	 0.210234292	-0.0201424303	 0.326035
C	 3.5051072372	-0.6507022935	-0.0350246964	-0.304181
C	 2.908023902	-1.9583028954	-0.0362652551	-0.019343
N	 1.579738739	-1.9751023188	-0.0236591544	-0.343288
C	 1.2458548519	-0.6433376899	-0.0133097102	 0.212337
C	 0.0411921312	-0.0352878748	 0.0014984447	-0.019099
H	 0.9155431912	 3.1001171104	 0.0099567547	 0.151849
H	 4.5573269215	-0.4124065842	-0.0438572249	 0.113157
H	 3.460029254	-2.8927594081	-0.0465835722	 0.113326
H	-0.9345861163	-0.5029493943	 0.0083390417	 0.164142
