18
gdb 82785	3.51798	1.7191	1.47812	2.3912	72.94	-0.226	0.0725	0.2984	914.7412	0.150692	-401.892597	-401.886164	-401.885219	-401.923045	27.239	
O	-0.1124669638	 1.4146372225	 0.0013473527	-0.449088
C	 0.0592452327	 0.0111589455	-0.0263600668	 0.13248
C	 0.2933499887	-0.6189395397	 1.3825980238	-0.107722
C	 0.856440768	-2.0375232188	 1.2523718949	-0.24464
C	-0.3494733918	-2.8227365917	 0.7829227594	-0.026078
C	-1.3630569477	-2.1716245779	-0.0895690671	-0.076932
C	-1.3343727321	-0.6337221899	-0.0191254233	-0.046087
C	-1.2647119654	-0.8423486812	 1.5101737558	 0.01367
N	-1.5944848743	-2.3246881883	 1.406497453	-0.158826
H	 0.7223602493	 1.8120296116	 0.2706477087	 0.280392
H	 0.7635200114	-0.2952888193	-0.8149116211	 0.058198
H	 0.8019684724	 0.0111445828	 2.1145994692	 0.065309
H	 1.7004294129	-2.0909880747	 0.5559632739	 0.102928
H	 1.1928595032	-2.4283323253	 2.2195010931	 0.107835
H	-0.2866453996	-3.9062038245	 0.732621762	 0.092503
H	-1.9444296861	-2.7426007412	-0.8068320483	 0.092642
H	-2.1526088059	-0.1216694848	-0.5231168889	 0.082214
H	-1.8454004619	-0.2942497351	 2.246898499	 0.081203
