20
gdb 12852	2.82676	2.26184	1.75843	1.4461	73.44	-0.2393	0.0813	0.3207	862.9404	0.178595	-349.008744	-349.001316	-349.000372	-349.040211	29.37	
C	-0.0532150587	 1.5866916609	-0.1046439949	-0.482915
C	 0.0092058781	 0.0697453991	-0.0114498007	 0.345887
C	-1.3140978312	-0.6295315117	 0.4485161208	-0.282432
C	-0.5937438858	-1.1936998125	 1.7051498518	-0.240512
C	 0.7422526567	-0.5551200195	 1.2289228918	 0.083031
O	 1.7238590346	-1.4569465961	 0.7520239728	-0.257815
C	 1.3491672768	-1.8537101052	-0.5634595677	-0.094617
C	 0.7143978301	-0.6079748573	-1.1981335488	-0.277409
H	 0.9474707748	 2.0166450064	-0.226531532	 0.115936
H	-0.6609601589	 1.9064811364	-0.9593191488	 0.115335
H	-0.4991222957	 2.0238529674	 0.7957310378	 0.111663
H	-2.1293091311	 0.0663512698	 0.6626389442	 0.097501
H	-1.6907958535	-1.3871058235	-0.2449633748	 0.094021
H	-0.9606758868	-0.7944925876	 2.6539375598	 0.099442
H	-0.5523311856	-2.2826821381	 1.7839892355	 0.105899
H	 1.2310079368	 0.120516606	 1.9358775205	 0.070792
H	 2.2488007406	-2.2043440546	-1.0760728111	 0.107997
H	 0.6303635053	-2.6882447357	-0.5315116079	 0.089589
H	 0.0322762258	-0.8517920538	-2.0182482486	 0.097762
H	 1.4979473675	 0.0491060895	-1.5911777198	 0.100844
