18
gdb 71710	2.29778	2.1213	1.79641	2.2435	74.33	-0.2178	0.0659	0.2837	889.4267	0.147569	-401.866008	-401.858635	-401.857691	-401.897179	30.209	
C	-0.0200106214	 1.5070569931	 0.0293858903	-0.498585
C	-0.0673305403	 0.0126636307	-0.0982159957	 0.324512
C	 0.4880599351	-0.7941254504	-1.2903404041	-0.291847
C	-0.3676687067	-1.9454705291	-0.7105817497	-0.159993
C	 0.1264558525	-2.1425890598	 0.7345703789	-0.038893
C	-0.9568147413	-1.3548884663	 1.3726742843	-0.165957
N	 0.3885527877	-0.7296018117	 1.1648782814	-0.171173
C	-1.3484038287	-0.8738272506	-0.0614875655	 0.350931
O	-2.5494938046	-0.4486028424	-0.5739414715	-0.475846
H	 1.0162528787	 1.8505197213	 0.1196167941	 0.125019
H	-0.4711377497	 1.9870853348	-0.8441226675	 0.122379
H	-0.5620936697	 1.8381777043	 0.9208983415	 0.125733
H	 0.0839975585	-0.424810372	-2.237539282	 0.107664
H	 1.5703863343	-0.9294665546	-1.3649395097	 0.101508
H	-0.700496498	-2.8076412802	-1.2869407569	 0.068135
H	 0.7579235175	-2.9225501086	 1.1424403998	 0.093845
H	-1.4418019969	-1.4100094851	 2.3405978076	 0.094893
H	-3.1458680872	-1.2024851636	-0.6484333352	 0.287676
