20
gdb 76690	3.19918	1.02304	0.93079	2.3366	75.57	-0.2239	0.0502	0.2741	1329.9477	0.170228	-440.21652	-440.207353	-440.206408	-440.250714	34.602	
O	 0.1628385355	 1.3067566178	 0.7262012395	-0.424755
C	 0.1096681075	-0.0225243566	 0.2592616584	 0.004617
C	-0.9131062982	-0.9038545839	 0.9376796145	 0.084015
O	-1.6321167042	-0.3380219399	 1.9936513161	-0.425734
C	-1.1420820294	-0.4155441593	-0.4847110347	-0.080165
C	-2.2295586414	 0.5852100491	-0.8065287227	-0.162599
N	-3.4436503202	-0.1167158441	-1.220770243	-0.072359
C	-4.3163305633	-0.5589637642	-0.1324162114	-0.219676
C	-4.695274979	 0.5976960228	-0.9890945722	-0.225717
H	 0.8714777946	 1.3598312906	 1.3770548372	 0.297469
H	 1.0644691249	-0.4266915742	-0.0703255774	 0.09413
H	-0.7033501623	-1.9550605325	 1.108702279	 0.100284
H	-1.3209313118	 0.5754617164	 2.0675021116	 0.284571
H	-0.995570097	-1.1578437237	-1.2644095003	 0.098988
H	-2.4064327424	 1.2441682526	 0.0574842012	 0.083203
H	-1.9128736933	 1.2263050839	-1.6378597591	 0.105437
H	-4.7925225764	-1.5245216276	-0.2793096639	 0.10884
H	-3.9900272992	-0.3562889318	 0.8847222155	 0.132356
H	-4.6412716194	 1.589502715	-0.5423010972	 0.105609
H	-5.4511332851	 0.4903433794	-1.7621860711	 0.111485
