20
gdb 92025	2.77493	1.70983	1.2699	2.5421	78.45	-0.2331	0.0697	0.3028	1048.5387	0.172769	-403.113079	-403.105425	-403.104481	-403.144823	31.192	
C	 0.0979262552	 1.5074387831	-0.026227719	-0.397477
C	 0.0089489778	-0.0119763867	 0.0222107871	 0.13693
O	 0.6428896194	-0.4855957083	-1.164070335	-0.263657
C	 0.7090736509	-1.8727275816	-1.3151304698	 0.089022
C	 2.0782938167	-2.4906055972	-1.2723877379	-0.312742
C	 1.1216260133	-2.6924580719	-0.1180547408	-0.047684
C	 1.2601646944	-1.9472772792	 1.1804221312	-0.058272
N	 2.1233846676	-0.7502762805	 1.2068837701	-0.331306
C	 0.6611549458	-0.5912019873	 1.2688093638	-0.045687
H	 1.1467228429	 1.8152864352	 0.0000121882	 0.136449
H	-0.3538162849	 1.8841154141	-0.9476110233	 0.121643
H	-0.4236817248	 1.9529345025	 0.8266381901	 0.10611
H	-1.0510760922	-0.3221336701	 0.0276783418	 0.061827
H	-0.0357260545	-2.277173792	-1.999447558	 0.081879
H	 2.2902828047	-3.335792724	-1.9176724973	 0.104789
H	 2.8968663082	-1.8012421606	-1.1035595331	 0.141414
H	 0.6657190937	-3.6723214312	-0.0156007113	 0.083813
H	 1.2423028852	-2.5671023133	 2.0731230092	 0.081049
H	 2.5299545631	-0.6403163409	 2.1315206463	 0.231139
H	 0.2077783776	-0.27949425	 2.2076689875	 0.08076
