20
gdb 84350	2.09638	1.55839	1.27558	3.9897	83.34	-0.2642	-0.0019	0.2623	1119.4002	0.1716	-366.047045	-366.038117	-366.037173	-366.080456	33.944	
C	 0.9269648208	 1.4784340914	-0.2349091412	-0.399761
C	 0.1529844033	 0.1693496332	 0.0055663781	-0.043951
C	 0.3916364108	-0.8218769933	-1.1112698216	-0.053031
C	 1.1812922868	-1.829686807	-0.7506731592	-0.08151
C	 1.5988368783	-1.7132071096	 0.7084935091	-0.208383
C	 3.0091619871	-1.3207957372	 0.8246140774	 0.285985
N	 4.1195410713	-1.0083519439	 0.9099642348	-0.343789
C	 0.5886578503	-0.6482506625	 1.2617338431	 0.002637
C	 1.0592988641	 0.1458299543	 2.4770158453	-0.42365
H	 2.0047477822	 1.2995356886	-0.2946688083	 0.140698
H	 0.6131185841	 1.938736743	-1.1773930144	 0.11525
H	 0.7423642825	 2.2011665691	 0.5654119206	 0.118989
H	-0.9122220756	 0.4197496601	 0.0888187384	 0.078786
H	-0.0067892363	-0.6766994208	-2.1098845322	 0.103217
H	 1.5413099102	-2.6282805124	-1.3874402214	 0.113078
H	 1.4900586773	-2.6602568414	 1.2503815869	 0.123028
H	-0.2868316932	-1.238016023	 1.5564893287	 0.090794
H	 1.965770025	 0.7196606491	 2.2681151849	 0.144947
H	 0.2816133084	 0.8437583004	 2.8035619563	 0.116866
H	 1.2779513929	-0.521365688	 3.3171531449	 0.1198
