17
gdb 23359	2.76163	1.55388	1.17988	1.543	76.09	-0.2325	0.0131	0.2456	1063.0966	0.135302	-417.89426	-417.886315	-417.885371	-417.926463	30.812	
C	 0.0348930597	 1.5795905736	-0.0091580907	-0.508197
C	 0.0505662479	 0.078058093	 0.0374954216	 0.182089
C	-1.2099828198	-0.8049190367	 0.1837791656	-0.18221
N	-0.3722884003	-1.8957924327	 0.7988690829	-0.144774
C	 0.9252024307	-1.8781795086	 0.020789631	-0.14921
C	 0.6658310943	-0.9083065238	 1.1351037162	-0.093831
C	 0.855021146	-0.7552602365	-0.951302329	 0.445062
N	 1.3855327694	-0.4178711548	-2.0486567578	-0.303346
O	 2.1754306088	-1.4667927477	-2.5752076767	-0.399066
H	 1.0508262519	 1.9854451263	-0.0113079671	 0.133307
H	-0.4592585373	 1.9251208741	-0.9232231992	 0.137868
H	-0.5045400584	 1.9959951952	 0.847546959	 0.119626
H	-1.9057121521	-0.4448882637	 0.9465063515	 0.112246
H	-1.751975752	-1.0844691151	-0.7262987114	 0.11047
H	 1.5094790951	-2.7848905461	 0.0059906403	 0.122165
H	 1.1427298548	-0.7800061991	 2.0977250942	 0.112192
H	 2.5078078314	-1.0752842674	-3.3897208004	 0.305609
