15
gdb 127370	2.50329	1.8808	1.08114	3.4918	71.79	-0.2261	-0.0365	0.1897	1042.2923	0.115437	-450.161757	-450.153983	-450.153039	-450.194193	28.694	
C	-0.4410847689	 1.3758268309	-0.0090952454	-0.333776
N	 0.0222298059	-0.0079183525	-0.0084896233	-0.126196
C	 0.2546321116	-0.6825753378	-1.1807458894	 0.124185
N	 0.6613353305	-1.8956919371	-1.2894238493	-0.257286
N	 0.8733490848	-2.5487888969	-0.0989824544	-0.30124
C	 0.7011979094	-2.0563388669	 1.1632248304	 0.392433
O	 0.9117263489	-2.7023323328	 2.1714019492	-0.370944
C	 0.2221650949	-0.6266472614	 1.222953356	 0.281718
N	 0.0078449018	-0.0051511147	 2.3117394437	-0.531618
H	 0.2738929489	 2.0096765255	 0.5212744136	 0.160973
H	-0.5479256806	 1.7151632738	-1.0400430446	 0.133091
H	-1.3997967307	 1.4493677948	 0.5102764791	 0.160914
H	 0.0746527797	-0.1295335374	-2.0943413676	 0.144288
H	 1.1930309514	-3.5024538807	-0.1901163821	 0.275471
H	 0.2176369424	-0.6446923668	 3.0808834041	 0.247987
