21
gdb 114997	2.58286	1.30473	0.92694	1.399	81.55	-0.2452	0.0201	0.2653	1314.3079	0.181897	-424.235025	-424.225779	-424.224835	-424.269028	34.589	
C	-0.0538327291	 1.3829752897	-0.0285331588	-0.241072
O	-0.0676027644	-0.033844632	-0.0651015887	-0.238864
C	 0.6022270694	-0.5796595172	-1.1482942379	 0.227624
C	 0.6636365147	-2.0930791957	-0.9796223277	-0.284018
C	 1.0883393265	-2.7298624996	-2.276346429	-0.084241
C	 1.0688346851	-2.0608973453	-3.4265411881	-0.061205
C	 0.5637249218	-0.6427763102	-3.5256043535	 0.100711
C	-0.4271094769	-0.4553169184	-4.6721921684	-0.396284
O	-0.1031975696	-0.2445758366	-2.3334774657	-0.281474
H	 0.9766149593	 1.7696292419	-0.010599942	 0.102616
H	-0.5771532706	 1.8125750516	-0.8891867673	 0.128876
H	-0.5603007527	 1.6802800302	 0.8920640558	 0.125898
H	 1.6273429647	-0.1608370284	-1.2213119777	 0.047776
H	 1.362591935	-2.3456773278	-0.1739014667	 0.109074
H	-0.3254785175	-2.4470218089	-0.6627187278	 0.126251
H	 1.4345833886	-3.7593216444	-2.2440625555	 0.091886
H	 1.4138794583	-2.5184487699	-4.3500702344	 0.08925
H	 1.4266828184	 0.0290926169	-3.6985103099	 0.072277
H	-1.2863801128	-1.1189131264	-4.5416634343	 0.12866
H	-0.7840051179	 0.5777967229	-4.6939774645	 0.123194
H	 0.0490086597	-0.6806791024	-5.6311765379	 0.113065
