17
gdb 129749	2.98831	1.33304	0.99554	3.8012	77.71	-0.2022	-0.0016	0.2005	1185.6912	0.136963	-417.984054	-417.975701	-417.974757	-418.018362	30.621	
N	 0.0780811011	 1.3852938547	-0.4709136982	-0.612948
C	 0.0156359305	 0.0488565117	-0.0411393431	 0.011962
C	-1.0733852843	-0.7362899524	 0.2218058749	 0.419145
O	-0.6556646155	-1.9909433787	 0.5242256778	-0.234532
N	 0.7283666605	-2.0495755216	 0.4698087805	-0.1493
C	 1.1109084827	-0.8433875182	 0.1294634516	 0.00025
C	-2.5164152166	-0.4769390503	 0.2244209707	-0.124196
C	-3.4984905018	-1.5402938351	-0.2345180569	-0.259606
C	-3.4307906253	-1.170727208	 1.2184853205	-0.262513
H	 0.8727110629	 1.8762755636	-0.0800700289	 0.248344
H	-0.7608510254	 1.9053110386	-0.2465460313	 0.245207
H	 2.166254954	-0.6360229968	 0.0143519358	 0.123157
H	-2.7702307026	 0.5471030788	-0.0299193505	 0.084775
H	-4.3529830992	-1.2146885986	-0.8168362639	 0.117863
H	-3.0786556256	-2.4937704589	-0.5323377613	 0.138426
H	-2.9664545254	-1.8764330615	 1.8971335195	 0.137364
H	-4.2388977001	-0.5884010773	 1.6466766126	 0.116602
