15
gdb 28707	5.33067	0.87691	0.78326	4.0068	71.47	-0.2242	-0.0129	0.2113	1406.2164	0.111282	-457.815842	-457.807493	-457.806549	-457.849863	29.376	
C	-0.0799407813	 1.6361002975	-0.1914322661	-0.489928
C	-0.0119599352	 0.1534411514	-0.1449042784	 0.356339
C	-0.9126305358	-0.8245963815	 0.1370923969	-0.243722
C	-0.2317683217	-2.0818396001	-0.0113002043	-0.301413
C	 1.0345093173	-1.754614166	-0.3678500374	 0.384881
O	 2.1342170458	-2.4865258723	-0.6721741659	-0.207305
C	 2.6531736449	-3.2837533002	 0.3197284163	 0.163978
O	 3.5597620205	-4.0228797782	 0.1172664814	-0.244975
O	 1.200622642	-0.4156933307	-0.4520076442	-0.187753
H	 0.1502028556	 2.0180576514	-1.1924007135	 0.144527
H	-1.0858110546	 1.9655421896	 0.07776784	 0.139238
H	 0.6299705732	 2.0949846096	 0.5058598804	 0.142336
H	-1.9455736464	-0.6756757415	 0.4102963231	 0.115337
H	-0.6316309059	-3.0760423884	 0.1032423693	 0.12474
H	 2.1177872117	-3.1425210404	 1.2745530523	 0.103719
