20
gdb 60204	2.89063	0.88383	0.78028	4.1784	77.4	-0.2487	0.0037	0.2524	1521.272	0.16882	-440.278362	-440.268411	-440.267467	-440.314022	35.738	
C	-0.141455983	 1.4128317693	-0.2756468785	-0.407917
C	-0.1237194432	-0.1091032501	-0.1470895462	 0.138322
O	 0.746092067	-0.536495811	 0.8985527492	-0.427764
C	-1.5358135965	-0.6913561807	 0.0388155049	-0.233398
C	-1.5518257683	-2.2009899998	 0.1380389466	-0.001904
C	-2.807428313	-2.9752085367	-0.1537594288	-0.257352
N	-1.6803859383	-3.0329388904	-1.0522788411	-0.059065
C	-1.7084059473	-2.6287999791	-2.3715718177	 0.131481
O	-2.635776132	-2.7913530151	-3.1284176511	-0.293089
H	 0.8766254405	 1.7954008886	-0.3855955274	 0.130015
H	-0.7288053449	 1.7323297901	-1.1422898995	 0.124176
H	-0.5872847435	 1.8728434375	 0.6156567551	 0.108959
H	 0.3177551906	-0.5379630467	-1.0552402255	 0.096924
H	 0.4893458269	-0.0710053681	 1.7027953011	 0.278174
H	-1.962085154	-0.2769100292	 0.9642291259	 0.098397
H	-2.185955571	-0.3620599387	-0.7812083182	 0.1128
H	-0.8667219928	-2.6033996915	 0.8803540198	 0.115708
H	-3.024967726	-3.8840203193	 0.4005780681	 0.127797
H	-3.6793900726	-2.4247729993	-0.4995359644	 0.133928
H	-0.7381526985	-2.2000958799	-2.6891042622	 0.083805
