19
gdb 105656	2.001	1.47444	1.17822	4.7993	76.1	-0.2369	0.0273	0.2642	1161.6124	0.160846	-415.357141	-415.347495	-415.346551	-415.391808	35.245	
N	 0.0419199486	 1.5382651649	 0.0426674628	-0.512333
C	 0.4130578095	 0.1577533504	-0.2645871223	-0.205025
C	 0.8265133653	-0.5374588428	 1.0337812457	 0.168962
N	-0.2518419693	-0.5685770261	 2.0607311957	-0.346986
C	 0.0581212479	-1.973484228	 2.4175610647	-0.189222
C	 0.8608762042	-2.1191716777	 1.088916774	-0.034704
N	 0.2367445772	-2.7706735528	-0.0427486491	-0.513798
C	 2.0844666596	 0.0241657583	 1.5493891064	 0.276624
N	 3.075265586	 0.4235151091	 1.9931344248	-0.352014
H	-0.0971531446	 2.0623614713	-0.8143136213	 0.233915
H	-0.8473865127	 1.5381809307	 0.5335408795	 0.233619
H	-0.3844045071	-0.4371753657	-0.729755633	 0.091127
H	 1.2609958786	 0.1599295009	-0.9569172179	 0.120807
H	-0.1501553534	 0.1095030924	 2.8079207949	 0.236239
H	 0.6862671449	-2.0910686586	 3.3096403082	 0.112328
H	-0.8266067212	-2.6122732127	 2.5175390225	 0.098565
H	 1.8669906035	-2.52201977	 1.2043825131	 0.106461
H	 0.408470369	-3.769736408	-0.0094145557	 0.237998
H	-0.7702298361	-2.6415073756	-0.029015723	 0.237437
