20
gdb 18708	3.13514	2.121	1.4694	0.3388	79.41	-0.2209	0.0256	0.2466	920.6628	0.179318	-311.878701	-311.871384	-311.87044	-311.90977	29.594	
C	 0.0992506344	 1.5708410144	 0.0047659677	-0.39194
C	 0.0313503806	 0.0384622369	 0.0081408118	 0.017025
C	 0.5436520793	-0.5446839259	-1.3280101262	-0.267707
C	 0.7647445209	-2.0350555862	-1.2846133229	-0.090588
C	 1.0743454352	-2.6787857156	-0.1572804777	-0.040098
C	 1.2285058594	-1.9825092519	 1.1427763354	-0.08436
C	 2.216967125	-0.8255101464	 1.2493379979	-0.291346
C	 0.7387460072	-0.5520748188	 1.2184623429	-0.007986
H	 1.1381490331	 1.9136066574	-0.0588044328	 0.11425
H	-0.4464682962	 1.9907404264	-0.847241866	 0.107829
H	-0.3335815795	 1.9906471243	 0.9190905254	 0.108126
H	-1.0243823493	-0.2552908501	 0.0979452582	 0.074904
H	-0.1681804356	-0.2903133504	-2.122330916	 0.098968
H	 1.4791872136	-0.037778119	-1.6100634915	 0.105901
H	 0.6870397254	-2.5823087868	-2.2200271879	 0.082364
H	 1.2361432082	-3.7534215885	-0.1687254413	 0.082237
H	 1.1175256773	-2.5994100177	 2.0287459711	 0.079502
H	 2.7427427386	-0.6909265493	 2.1886750131	 0.107421
H	 2.813575591	-0.6094503619	 0.3697296496	 0.11622
H	 0.3000835016	-0.2533973509	 2.1673976691	 0.079275
