20
gdb 16008	3.9035	1.73194	1.39229	0.2812	81.72	-0.2204	0.0312	0.2516	961.4009	0.179647	-311.880425	-311.873259	-311.872314	-311.911477	29.194	
C	 0.0003117149	 1.5278224604	 0.0129334697	-0.322663
C	 1.3173180053	 0.8044283498	-0.0342754979	-0.303559
C	 0.017073797	 0.0137170742	 0.0037178467	 0.373028
C	-0.363628303	-0.7223270229	 1.2804966563	-0.28587
C	-0.1044314162	-2.2284770957	 1.1385900514	-0.208212
C	-0.9164547797	-2.8142203206	-0.027027969	-0.245252
C	-0.8367702953	-1.9468936447	-1.2576279402	-0.082362
C	-0.3973182411	-0.6870543686	-1.2372130486	-0.100248
H	-0.2827280913	 2.0188217531	 0.9385709539	 0.109814
H	-0.3378989969	 2.039538134	-0.8822895025	 0.110216
H	 1.878906033	 0.8186064332	-0.9621434078	 0.110774
H	 1.9331803398	 0.797485831	 0.8592793467	 0.110772
H	 0.1864429356	-0.3110470862	 2.1343626105	 0.087065
H	-1.4309746573	-0.5594147553	 1.4851570719	 0.096678
H	 0.9642540816	-2.3911186816	 0.9510350733	 0.101102
H	-0.3475887125	-2.7495052106	 2.0707288434	 0.088159
H	-0.5613203245	-3.8253077072	-0.2633441879	 0.099264
H	-1.9688727518	-2.93820234	 0.2709676153	 0.104287
H	-1.1499548265	-2.3902107105	-2.1997256609	 0.080292
H	-0.3338543509	-0.1183920017	-2.1632554344	 0.076713
