16
gdb 98129	4.66613	0.8661	0.73389	1.7514	72.27	-0.2425	-0.0518	0.1907	1493.3662	0.124425	-471.267906	-471.258354	-471.25741	-471.303301	32.397	
C	-0.0073027554	 1.5130379606	 0.0695076112	-0.335672
N	 0.0480412135	 0.0667699436	 0.0653436478	-0.303664
C	 0.5788961542	-0.658639286	 1.0609789094	 0.339579
O	 1.0824200331	-0.2334845044	 2.092714074	-0.404803
C	 0.4908775805	-2.1768921684	 0.767385329	 0.353095
O	-0.0051482101	-2.6066321672	-0.2497569689	-0.344004
N	 1.0428827945	-2.8774982913	 1.806957108	-0.324661
C	 1.1819800329	-4.2511767421	 1.9757914339	 0.084992
N	 0.7893111356	-5.1084076282	 1.1300049873	-0.396313
H	 0.5459952444	 1.9306841826	-0.7782444836	 0.137577
H	-1.0422928016	 1.8674919563	 0.0206593848	 0.137572
H	 0.4462852768	 1.8607719314	 0.9987132177	 0.169317
H	-0.3198177211	-0.4738795405	-0.7063222469	 0.274093
H	 1.3866431982	-2.2622542882	 2.5368662812	 0.276493
H	 1.672494557	-4.4719691917	 2.9316977236	 0.103483
H	 0.9974202672	-6.0461762365	 1.4698504716	 0.232917
