20
gdb 85953	2.68728	1.1512	1.03387	4.1273	74.8	-0.2455	0.026	0.2714	1250.4763	0.169335	-440.310159	-440.300241	-440.299297	-440.345564	37.073	
C	-0.595641296	 1.7040904544	 0.0748040283	-0.455169
C	-0.0435137097	 0.2768006968	 0.0559319623	 0.194501
C	 1.1988066944	 0.0089254166	-0.8649283593	-0.316863
C	 1.8158274741	-0.8255758689	 0.2898187445	 0.18061
O	 3.1979112874	-0.7668074767	 0.5279544001	-0.436476
C	 0.8240229173	-0.1522670997	 1.2726969163	-0.302692
C	-1.1556044141	-0.7510666502	-0.205317375	 0.366698
N	-1.8504100266	-0.5641998462	-1.3697692464	-0.51949
O	-1.4219915969	-1.660417386	 0.5572063405	-0.365123
H	 0.2081258498	 2.4163883701	 0.2868126945	 0.113528
H	-1.0475036559	 1.9916916339	-0.8804575927	 0.108292
H	-1.3615294922	 1.819446036	 0.8492767195	 0.132729
H	 1.0399537542	-0.4803695946	-1.8297543677	 0.097258
H	 1.7638497429	 0.9340247212	-1.0281592753	 0.09021
H	 1.580920816	-1.8864092506	 0.1727283092	 0.109986
H	 3.4331690272	 0.1518535035	 0.6963597986	 0.273966
H	 1.2774925312	 0.7213915901	 1.7543432243	 0.07897
H	 0.3396996637	-0.7816532064	 2.0183580817	 0.130928
H	-1.5338773832	 0.0729888225	-2.0794375415	 0.257673
H	-2.5084799939	-1.2792186056	-1.6348529619	 0.260464
