15
gdb 44905	2.97299	1.84948	1.62181	3.2076	65.35	-0.2693	-0.0045	0.2649	859.0556	0.116485	-453.973925	-453.967709	-453.966765	-454.004461	25.051	
N	-0.0521065478	 1.2611129543	-0.0242512563	-0.539275
C	-0.03616701	 0.0071197213	-0.0106287552	 0.447178
O	 1.1132806659	-0.7794627914	-0.0401778648	-0.247311
C	 0.718276587	-2.1424940418	-0.0732298176	 0.203352
C	-0.6480533995	-2.124103485	-0.7613205108	-0.284603
C	-1.2172819914	-0.9478800732	 0.0448438294	-0.07932
N	-1.4092362175	-1.373483321	 1.4462890227	-0.257027
C	-0.5262784178	-2.1585276877	 1.9029478797	 0.124483
O	 0.5812759038	-2.6327320853	 1.2638324975	-0.228797
H	 0.8964105708	 1.6406263141	-0.0501858288	 0.231812
H	 1.5151899906	-2.7264928939	-0.52871395	 0.114974
H	-0.5399402699	-1.890690409	-1.8230888914	 0.129057
H	-1.2046125886	-3.0534474253	-0.6353434748	 0.130275
H	-2.1308444947	-0.4956902347	-0.3327942618	 0.113919
H	-0.581186241	-2.5508241515	 2.9150709623	 0.141283
