17
gdb 59931	2.21055	1.08184	0.87336	4.845	74.23	-0.3082	-0.0342	0.2739	1384.1886	0.132948	-418.014025	-418.003971	-418.003027	-418.05005	34.768	
C	 0.2063231151	 1.3799927618	-0.3056613745	-0.399223
C	-0.0038371128	-0.0896190666	 0.053124854	 0.133933
C	 0.4839114882	-0.4318001607	 1.4532062857	-0.395909
O	-1.413049593	-0.4285003392	 0.0443548187	-0.251615
C	-1.9788448705	-0.6023877187	-1.2233310198	-0.139658
C	-1.4978088882	-1.8393885398	-1.8922586256	 0.291377
N	-1.0734403674	-2.7824101019	-2.4056454766	-0.305357
C	-3.4446048195	-0.6433388755	-1.0724637329	 0.30516
N	-4.5939531839	-0.6499974612	-0.9748634438	-0.293847
H	 1.2730845643	 1.6208901382	-0.2750600891	 0.133168
H	-0.1483773683	 1.6206088744	-1.3129917461	 0.120041
H	-0.3166517564	 2.0239068364	 0.4075326009	 0.13765
H	 0.509293044	-0.7313726482	-0.6771121102	 0.102777
H	-0.0485824451	 0.1666675681	 2.1985307903	 0.134693
H	 0.3131216554	-1.4885224771	 1.6709511259	 0.137766
H	 1.5538471873	-0.2238416112	 1.540857409	 0.125995
H	-1.747655769	 0.2358572211	-1.9002021761	 0.163051
