20
gdb 58341	2.16609	1.35846	1.02625	2.7697	78.53	-0.2423	0.0069	0.2492	1250.5723	0.170977	-436.51439	-436.504323	-436.503379	-436.54922	37.208	
C	 1.0739589064	-1.0465492921	 0.2238285407	-0.390246
C	 0.0426479309	 0.0443779842	-0.0941341582	 0.026417
C	 0.3866108089	 0.8269873624	-1.3703273841	-0.390397
N	-1.3406246887	-0.4947689414	-0.126234546	-0.126245
C	-1.7651241278	-1.3469004282	-1.1405569182	 0.094897
N	-0.9864828148	-1.7768539676	-2.0527572611	-0.485347
C	-2.3022334569	-0.1900374426	 0.8556059632	 0.466041
N	-1.8236059401	 0.422642292	 1.9991804831	-0.569179
O	-3.4870461389	-0.4197398815	 0.7076293297	-0.388715
H	 2.0658331444	-0.5973509961	 0.3356771855	 0.114734
H	 0.8284634922	-1.5644638664	 1.157361858	 0.101743
H	 1.1102037948	-1.7828707441	-0.5802357871	 0.160645
H	 0.0447336824	 0.7763715621	 0.714256143	 0.096751
H	 0.4544903707	 0.1664854306	-2.2332853868	 0.161029
H	-0.3701808695	 1.5919331868	-1.5676985998	 0.117117
H	 1.3482296691	 1.3302337715	-1.2274201486	 0.110133
H	-2.8221936134	-1.5885755298	-1.0311226815	 0.145158
H	-1.5051414191	-2.3892964024	-2.6792231273	 0.226795
H	-0.906146417	 0.1859108836	 2.3413964786	 0.262833
H	-2.5356170533	 0.4796461788	 2.7116662669	 0.265833
