20
gdb 74418	2.61182	1.52807	1.16973	1.2674	80.21	-0.2327	0.0273	0.26	1149.1361	0.169279	-403.175039	-403.165833	-403.164889	-403.208359	34.948	
C	-0.0079273797	 1.4303500016	 0.0782712986	-0.480332
C	-0.0395008107	-0.0526076327	-0.0533016305	 0.372501
N	-0.0716766429	-0.7258149166	-1.1364084552	-0.342303
C	-0.0545851511	-2.1255453988	-0.7584726844	 0.280963
C	-0.8149962552	-3.0706943041	-1.6493643334	-0.471298
C	 1.2000883745	-2.554838236	-0.0112584072	-0.38551
C	-0.0171755067	-2.1271258462	 0.7658661999	 0.363103
C	-0.7540420325	-2.9968287815	 1.739927394	-0.475389
O	-0.0322119093	-0.7452401631	 1.1242978241	-0.278027
H	 0.9371085998	 1.756296193	 0.5250205633	 0.144131
H	-0.1159878537	 1.885384647	-0.9058830808	 0.151854
H	-0.8134586704	 1.7714777863	 0.7358770484	 0.142631
H	-0.3666681888	-3.0936023684	-2.6478257166	 0.132024
H	-0.8018603184	-4.0888362387	-1.2492790024	 0.110894
H	-1.8576605605	-2.7551451985	-1.75663738	 0.122937
H	 1.4191603827	-3.6178655435	-0.0000806457	 0.112193
H	 2.0684394833	-1.9044570561	-0.0384249415	 0.115348
H	-0.7731045863	-4.0304905761	 1.3844416022	 0.124843
H	-0.2670617561	-2.9881103745	 2.7209293353	 0.131427
H	-1.786296008	-2.655865073	 1.867047152	 0.12801
