19
gdb 81867	2.80616	1.4174	1.08667	2.3961	74.77	-0.2402	-0.0205	0.2197	1139.0913	0.158259	-423.047062	-423.03846	-423.037515	-423.079978	33.47	
C	 0.1430029826	 1.647148019	 0.0309613231	-0.392094
C	 0.105575976	 0.1188803466	-0.0202260385	-0.103225
C	 0.7542458366	-0.5548500834	-1.2172576511	-0.126723
C	 2.273278124	-0.5457354647	-1.2872314917	-0.324928
C	 1.5693770425	-1.7516613393	-0.7500855696	 0.410155
O	 1.6890621118	-2.9174593574	-1.5039635045	-0.470182
C	 1.4445927057	-1.8583833768	 0.7591496223	-0.396616
C	 0.7985417646	-0.536109096	 1.1934145966	 0.375126
O	 0.8321425939	-0.071147951	 2.3028130805	-0.31114
H	 1.162683844	 2.0170731778	-0.1149308192	 0.121116
H	-0.4886751703	 2.0818582133	-0.7488652477	 0.112881
H	-0.207144743	 1.9987312308	 1.0047701131	 0.137214
H	-0.9451878	-0.2078429724	 0.0373755361	 0.100323
H	 0.2151020519	-0.6070221653	-2.1564225181	 0.090836
H	 2.7087911405	-0.6583067101	-2.2730555121	 0.127923
H	 2.8399175241	 0.0891195634	-0.6114321094	 0.118536
H	 0.8806562791	-3.4315320435	-1.3957736767	 0.279196
H	 0.7625793223	-2.6781287592	 1.0287816838	 0.117239
H	 2.3835739237	-2.029704112	 1.2925091132	 0.134361
