17
gdb 17525	4.55346	1.72681	1.59419	0.96	67.11	-0.2412	0.0564	0.2976	848.6879	0.143258	-363.796997	-363.789976	-363.789032	-363.82832	26.993	
O	-0.0353661567	 1.3959882791	 0.0415142776	-0.424817
C	 0.0213167065	-0.0231327935	-0.0123324267	-0.201879
C	-1.3930860711	-0.5236338232	 0.0059401841	 0.370355
C	-2.2827707659	-0.4217324225	 1.2642408397	-0.270598
C	-2.881617172	-1.7165127373	 0.7492847912	-0.039377
C	-2.9203747111	-1.6616867358	-0.7447121549	-0.039371
C	-2.346535629	-0.3315341321	-1.1937638031	-0.270611
N	-1.6511850212	-2.068868215	-0.0440754949	-0.205085
H	 0.8650199841	 1.7330562684	 0.0314906879	 0.292269
H	 0.5211319257	-0.3783637104	-0.9274783874	 0.093586
H	 0.5671923705	-0.44388079	 0.8470126281	 0.093597
H	-1.7003856667	-0.5917322573	 2.1739541545	 0.106164
H	-2.9157225829	 0.462360921	 1.3853519781	 0.102083
H	-3.4172442277	-2.4765504351	 1.3072490722	 0.092713
H	-3.4856179865	-2.3798315445	-1.3283611239	 0.092714
H	-2.9832284907	 0.5578519516	-1.2168624247	 0.102084
H	-1.8123563851	-0.4333457236	-2.1424141277	 0.106173
