15
gdb 130312	3.10566	1.29694	0.97123	3.1383	67.64	-0.2373	-0.0029	0.2344	1156.7144	0.113356	-453.909004	-453.901218	-453.900274	-453.942028	28.692	
N	-0.1226797749	 1.4354831567	-0.0460608716	-0.591293
C	-0.0290189852	 0.0530194799	-0.0292974206	 0.324013
N	-1.1058206325	-0.7020253487	-0.051107158	-0.223828
O	-0.6390471501	-2.0168738757	 0.069514367	-0.173797
C	 0.6951111637	-1.9967305108	 0.1427026606	 0.01007
C	 1.1694784667	-0.7252637929	 0.0929773856	 0.103158
C	 2.570836495	-0.2693155551	 0.1582546929	-0.073902
C	 3.3999968227	-0.4326982896	 1.3678864994	-0.164642
O	 3.560186896	-1.2956335873	 0.2413110261	-0.228881
H	 0.5977533512	 1.8961310576	-0.5844447201	 0.254243
H	-1.0441882591	 1.756363822	-0.3142399432	 0.26318
H	 1.1919759557	-2.9507640167	 0.221633427	 0.163384
H	 2.8375572688	 0.5485925124	-0.514684104	 0.094249
H	 4.2270750708	 0.2512786881	 1.5529448759	 0.120912
H	 2.9557021613	-0.89118801	 2.2490922529	 0.123134
