21
gdb 75437	2.83902	1.13725	0.84545	0.6386	91.49	-0.2321	0.0284	0.2606	1394.4135	0.182519	-349.951413	-349.942288	-349.941343	-349.984964	35.34	
C	-0.0120285694	 1.5336818471	 0.0610612828	-0.480206
C	 0.009763039	 0.0317314093	-0.0287711688	 0.30911
C	-0.0065426908	-0.6162546131	-1.1962646675	-0.130491
C	-0.0198276483	-2.1154975328	-1.3407084886	-0.272175
C	-0.348080729	-2.8268949882	-0.0225795938	-0.196067
C	 0.4368738461	-2.1904260996	 1.1440665834	-0.188854
C	 0.0428186695	-0.7036632325	 1.2926860955	-0.283563
C	 0.2489360905	-2.9199895247	 2.3937261567	 0.301701
C	 0.0699941493	-3.5164596482	 3.4224856015	-0.435191
H	 0.8840088205	 1.915538796	 0.5675914764	 0.121061
H	-0.0688857933	 1.9973707079	-0.9274434261	 0.119158
H	-0.8709697702	 1.8821519921	 0.6497666101	 0.121916
H	-0.0123789268	-0.0393887228	-2.1193034459	 0.074686
H	-0.7476256583	-2.4062582757	-2.1090074558	 0.103358
H	 0.9543745662	-2.4587846346	-1.7212948852	 0.106411
H	-1.4197925581	-2.7419241683	 0.1925735674	 0.107714
H	-0.1195628743	-3.8944713437	-0.0901506911	 0.103842
H	 1.5044644433	-2.2266126136	 0.8831850811	 0.103859
H	 0.7427329384	-0.2083069363	 1.9771460236	 0.1086
H	-0.9394907614	-0.6358918961	 1.7814459862	 0.116121
H	-0.0762828228	-4.046434032	 4.3307026982	 0.189008
