16
gdb 124396	3.24958	1.27942	0.96651	2.7432	74.97	-0.259	0.0108	0.2698	1182.0977	0.125344	-396.92671	-396.918371	-396.917427	-396.960358	30.45	
C	 0.1111485431	 1.5304508714	 0.1219362871	-0.385596
C	-0.0468838927	 0.0003888135	-0.0448278927	-0.307637
C	-1.4528255919	-0.3996143889	-0.1103751281	 0.31776
C	-2.6100197548	-0.7172830185	-0.1825661231	-0.449249
C	 0.7179803666	-0.489283407	-1.2481494228	 0.420044
N	 2.0117605157	-0.319588006	-1.4647552932	-0.328245
C	 2.2005624219	-0.9330200447	-2.6657152891	 0.021231
N	 1.1170903882	-1.4682776733	-3.2042460199	-0.217776
N	 0.1765259112	-1.1704330201	-2.2764944359	-0.244191
H	 1.1731500646	 1.7805205814	 0.1533949294	 0.151928
H	-0.3500636727	 2.0567583561	-0.717471957	 0.132839
H	-0.3686985512	 1.8596450395	 1.0465161837	 0.128344
H	 0.4060466716	-0.4773037558	 0.8344154271	 0.143051
H	-3.6344051554	-0.9962909164	-0.2220731528	 0.207791
H	 3.1616221931	-0.9867320881	-3.1550140747	 0.126785
H	-0.7827138973	-1.4549548133	-2.3963004483	 0.282923
