21
gdb 76341	1.8295	1.75859	1.20954	1.3718	73.84	-0.2308	0.0485	0.2793	1136.7573	0.179762	-461.352413	-461.3421	-461.341156	-461.386744	39.07	
C	-0.8438181605	 1.1372746994	-0.1618590789	-0.41922
C	-0.0007511297	-0.12675962	-0.0935098069	-0.007098
C	 1.3209182466	-0.2093727012	-0.8981733367	 0.00847
O	 1.9408419956	 1.0728579687	-1.0088070818	-0.431721
C	 1.9470417232	-1.0126250815	 0.2822538515	 0.082488
O	 3.2774483875	-0.7169168585	 0.6076713366	-0.44128
C	 0.776922082	-0.510233421	 1.2031318775	 0.338897
C	 1.1667616539	 0.6447058815	 2.1175802104	-0.468875
O	 0.0829911984	-1.5181935066	 1.9197132869	-0.48311
H	-0.245486842	 2.0319299448	 0.0242089611	 0.128537
H	-1.3000665725	 1.2463171911	-1.1514171548	 0.112538
H	-1.6526289268	 1.1007027629	 0.5749498309	 0.120851
H	-0.6093637932	-0.9978265537	-0.3579089693	 0.08944
H	 1.2732241365	-0.6954000882	-1.8779292766	 0.067776
H	 2.6073849324	 1.0190654701	-1.6995952757	 0.295407
H	 1.8604122208	-2.0939206772	 0.1427256753	 0.088027
H	 3.3814271223	 0.2265620343	 0.4239429296	 0.277927
H	 1.6127698776	 1.4725700673	 1.5608784168	 0.129868
H	 0.2856367513	 1.0189004129	 2.6468214466	 0.12139
H	 1.9035419684	 0.3074642752	 2.8558321794	 0.114714
H	 0.582576298	-1.7146417404	 2.7199046481	 0.274972
