21
gdb 107988	2.86087	1.457	1.28849	1.9133	81.4	-0.222	0.0801	0.3021	1106.2942	0.183509	-387.048825	-387.040815	-387.039871	-387.081378	31.796	
C	-0.0347454106	 1.585501252	-0.16039965	-0.379819
C	-0.0352630045	 0.0570906105	-0.0429205166	-0.326504
C	-1.4156946186	-0.5165048036	 0.0874206066	 0.451987
O	-2.383321429	-0.265416971	-1.0039193423	-0.35893
C	-3.1107818953	-1.0774163893	-0.0221451961	 0.045607
C	-1.8826979776	-2.0057048997	 0.1879115731	-0.082311
C	-1.824983626	-2.4661376043	 1.6396243791	-0.248731
C	-2.3039494623	-1.1653665487	 2.3621516002	-0.248449
C	-2.5287103114	-0.2553899072	 1.1599433487	-0.07141
H	 0.9802400026	 1.9666551803	-0.3052560662	 0.110694
H	-0.6472083052	 1.9037777438	-1.008224239	 0.14081
H	-0.4439046156	 2.0523822999	 0.7414108488	 0.116146
H	 0.4397602669	-0.3888530748	-0.9256106675	 0.111571
H	 0.5554415575	-0.2627397356	 0.8253302191	 0.103377
H	-4.1468390757	-1.3352587083	-0.2447940211	 0.083956
H	-1.6061581761	-2.6835840643	-0.6195962538	 0.071411
H	-2.4855531012	-3.3177039084	 1.8300518863	 0.102067
H	-0.8159491559	-2.7658189419	 1.9397537247	 0.101697
H	-3.2201120619	-1.3213022888	 2.9401905814	 0.102196
H	-1.5513136938	-0.7660403706	 3.0492949117	 0.101508
H	-2.8831237764	 0.7657042498	 1.2979966928	 0.073128
