19
gdb 92273	2.32602	1.59365	1.44067	1.6672	75.44	-0.238	0.0062	0.2442	1026.5317	0.15936	-423.023318	-423.015	-423.014055	-423.055866	32.76	
O	 0.6506367364	 0.7232198629	-0.9530773084	-0.434921
C	 0.1575155559	-0.2678989112	-0.0850429682	 0.08044
C	 0.1878884474	-0.041231048	 1.451614138	-0.288943
C	-1.2472387351	-0.6402069782	 1.5603310685	-0.044553
C	-2.3213922098	 0.2695439907	 2.1823477863	-0.282509
C	-2.7552567366	 1.1222324844	 1.0106334491	-0.052213
C	-2.2410284276	 0.7103520004	-0.1495323415	-0.178086
C	-1.3762234619	-0.5199224695	 0.0101350371	 0.343876
O	-1.8842103605	-1.6589194405	-0.65688109	-0.483771
H	 0.2264859119	 1.5544092734	-0.7109448391	 0.278145
H	 0.659266233	-1.1984158648	-0.3663505587	 0.093189
H	 0.9825423913	-0.5449123127	 2.0050410184	 0.105673
H	 0.2092144023	 1.0240440914	 1.7049222638	 0.09315
H	-1.2610902854	-1.667882037	 1.9231319393	 0.080902
H	-3.1727790978	-0.2900115855	 2.5923680107	 0.112968
H	-1.9194255708	 0.8686042303	 3.0092208949	 0.106659
H	-3.4308603329	 1.9642895072	 1.125225241	 0.097728
H	-2.4401131405	 1.1578085606	-1.1185294666	 0.094073
H	-1.8373202393	-1.494726374	-1.6055023746	 0.278192
