14
gdb 132749	2.36178	1.78055	1.02159	0.6094	67.73	-0.2573	-0.0234	0.2339	1063.3909	0.099875	-485.995924	-485.98828	-485.987336	-486.028582	27.998	
C	-0.023887789	 1.511040956	 0.0190417962	-0.484009
C	-0.006773691	 0.0074117193	 0.0132249	 0.213173
C	 0.0244598906	-0.6883329272	-1.1945939526	 0.082578
F	 0.0394989691	-0.0256500507	-2.3525436441	-0.058946
C	 0.0399682944	-2.0766221148	-1.1933852857	 0.214372
F	 0.0697203076	-2.7326131013	-2.3472346957	-0.05161
C	 0.0239226409	-2.7487835027	 0.0181029252	-0.26875
C	-0.0071676591	-1.9767107505	 1.1746222436	 0.001236
N	-0.0222314474	-0.6419914638	 1.183299793	-0.31798
H	 0.8589760302	 1.9193557512	-0.4842504455	 0.140583
H	-0.8994647123	 1.8993308059	-0.5121438711	 0.140643
H	-0.044469038	 1.8635028443	 1.0504669198	 0.145739
H	 0.0355442762	-3.8313912435	 0.042931071	 0.124122
H	-0.0206089123	-2.4619317621	 2.146686666	 0.118847
