22
gdb 101902	3.38485	0.68156	0.61887	2.9988	80.77	-0.2457	0.0344	0.2801	1858.6459	0.191968	-441.507404	-441.496204	-441.49526	-441.545596	38.485	
C	 0.068421025	 1.3122211255	-0.535963264	-0.235212
O	 0.025150892	-0.0390734151	-0.1425229806	-0.249097
C	-1.2665865046	-0.5187001787	 0.2250879825	 0.140656
C	-2.1573039398	-0.7587272512	-0.9964447945	-0.404385
C	-1.0414352206	-1.7998980822	 1.0274990053	-0.190022
C	-0.2236460622	-1.5588878605	 2.3026600951	-0.170706
N	 0.0180667135	-2.775422561	 3.0666814371	-0.267573
C	-0.8976842211	-3.2868345339	 3.9277231441	 0.150839
O	-1.975888815	-2.7850616374	 4.1730819131	-0.329723
H	 1.1202334297	 1.5706685768	-0.6843804866	 0.125356
H	-0.4686514681	 1.4990787815	-1.4770694265	 0.107649
H	-0.3524184876	 1.9747417211	 0.2368105425	 0.104386
H	-1.7489468824	 0.2301732145	 0.8780772648	 0.068055
H	-3.1356872321	-1.1382011159	-0.686011081	 0.121163
H	-2.3245356886	 0.1620332262	-1.562364884	 0.115815
H	-1.6955158131	-1.4928609506	-1.6643340761	 0.121935
H	-2.009645481	-2.2281285153	 1.3048800078	 0.122407
H	-0.5267053645	-2.5291123394	 0.3894899991	 0.095854
H	 0.7384908771	-1.1104305021	 2.0475741939	 0.121718
H	-0.7605409793	-0.865820533	 2.9574624861	 0.132274
H	 0.8590490409	-3.302486844	 2.8962150532	 0.247711
H	-0.5441434881	-4.2249325355	 4.4017229085	 0.070899
