23
gdb 63368	2.27174	1.28004	1.27617	2.4777	86.	-0.2265	-0.0148	0.2117	1229.4903	0.202213	-388.320551	-388.309701	-388.308757	-388.356859	39.954	
C	-0.6666213805	 1.4636374227	-0.3588128284	-0.439873
C	-0.1283404154	 0.029213959	-0.3751855677	 0.206672
C	-1.2581101103	-0.9858984009	-0.173322832	-0.439877
C	 0.8694493658	-0.2999782475	-1.5408038724	-0.342697
C	 2.0515579429	-0.5088407465	-0.5300509436	 0.20667
C	 2.598277605	-1.9377685182	-0.4473145323	-0.439875
C	 3.189688305	 0.5117892336	-0.6327810368	-0.439876
C	 1.0506371581	-0.1817192587	 0.598718086	 0.352876
O	 1.1516800352	-0.1157408963	 1.7918447065	-0.322206
H	 0.1308816566	 2.1991890062	-0.5044919413	 0.116594
H	-1.4037105248	 1.6049528734	-1.1572709997	 0.116741
H	-1.1519391502	 1.6808844132	 0.5979134665	 0.131651
H	-2.0060284422	-0.8892704523	-0.9683618906	 0.116741
H	-0.8868728853	-2.0156104537	-0.185381896	 0.116592
H	-1.7559218673	-0.8205794032	 0.7873581515	 0.131652
H	 0.6080301884	-1.1951523142	-2.110455393	 0.099122
H	 1.0233498714	 0.524998556	-2.2407378818	 0.099122
H	 3.1922644555	-2.1724289915	-1.3377752704	 0.116742
H	 3.2392072645	-2.0534823959	 0.4323864393	 0.131649
H	 1.7945159826	-2.6774425556	-0.3757616894	 0.116593
H	 2.8121226498	 1.5373829227	-0.6950047411	 0.116594
H	 3.8430568733	 0.4479880782	 0.2430576616	 0.131652
H	 3.7945692222	 0.3218519896	-1.5265645951	 0.116742
