14
gdb 18909	3.52427	2.79263	2.23514	0.4941	58.88	-0.2348	0.0656	0.3004	654.6406	0.107817	-382.447202	-382.441638	-382.440693	-382.476461	23.294	
O	-0.1337090412	 1.4392676758	 0.0183068587	-0.474746
C	-0.0456050003	 0.0733567198	 0.0066966108	 0.407532
C	-1.2757551331	-0.8751955569	 0.0597324839	-0.164983
C	-0.3910017912	-1.8700416895	 0.7766992183	-0.080829
C	-0.4631582248	-1.8617188234	-0.7483572565	-0.08083
C	 0.6993091517	-0.8666050487	-1.0236070602	-0.032985
O	 1.7577469746	-1.148854639	-0.0852420854	-0.289224
C	 0.7927418547	-0.8773434508	 0.951802479	-0.033005
H	 0.7590261421	 1.8040163543	-0.0209986043	 0.293489
H	-2.3383853762	-0.6934969972	 0.1110119567	 0.100788
H	-0.6675558606	-2.7211247559	 1.3827754589	 0.095933
H	-0.7961587131	-2.7062891901	-1.3348408054	 0.095933
H	 1.0308063821	-0.6412510549	-2.0361029957	 0.081469
H	 1.2184045854	-0.6628209436	 1.930894751	 0.081459
