12
gdb 3283	5.7673	2.65734	2.15288	4.3788	50.58	-0.2423	0.0058	0.2481	595.579	0.091443	-360.495788	-360.490293	-360.489349	-360.525069	20.411	
O	-0.008062466	 0.0291286798	 0.0723311314	-0.343317
C	 0.0057721644	 1.2237889247	-0.0087548297	 0.422096
N	-1.0038411151	 2.1774995179	-0.0467522044	-0.328557
C	-0.1227443469	 3.3412347594	-0.0154580408	-0.031903
C	 0.4187406927	 3.7328250857	 1.376394986	-0.08684
O	 1.4643715735	 2.7352821331	 1.2999867431	-0.281587
C	 1.077244054	 2.3550231086	-0.0372810416	-0.041143
H	-1.9709252351	 2.091341353	 0.2364894501	 0.25201
H	-0.3272424202	 4.1149262527	-0.7535811167	 0.104337
H	 0.845989702	 4.7416265254	 1.4208200236	 0.114227
H	-0.2569354774	 3.5764207518	 2.224305461	 0.111828
H	 1.9022065342	 2.3255770379	-0.7490456021	 0.108849
