16
gdb 46423	3.79404	0.87826	0.76308	5.8331	70.93	-0.2497	0.0076	0.2573	1427.9965	0.125061	-434.078748	-434.070016	-434.069072	-434.113222	30.666	
O	 0.299026384	 0.0681425633	 0.0954388065	-0.363008
C	 0.1285110833	 1.2581185611	 0.0460929797	 0.464288
N	-0.9813598053	 2.0568538589	 0.0772605483	-0.323823
C	-0.2557394876	 3.3319874506	 0.1036475249	-0.182867
C	 1.0563066993	 2.50628215	-0.0396601004	-0.125506
N	 1.9741457463	 2.6096394765	 1.0784202388	-0.313907
C	 3.0202699858	 1.5837194157	 1.0323936986	-0.274807
C	 3.905089209	 1.6985674951	 2.193360489	 0.258522
N	 4.6188757453	 1.8062865276	 3.0948899937	-0.299525
H	-1.9534899246	 1.8344407788	 0.2346372937	 0.2585
H	-0.4913423267	 4.0011182732	-0.728598423	 0.118815
H	-0.3251392248	 3.8649757551	 1.0562036504	 0.127942
H	 1.5267726558	 2.6073001861	-1.0317140078	 0.090216
H	 2.4032363657	 3.5299005284	 1.0961034149	 0.236785
H	 2.5392814847	 0.6002501362	 1.039041423	 0.195946
H	 3.6443272396	 1.6243196833	 0.1215756198	 0.132429
