17
gdb 41259	3.46549	1.92732	1.52636	1.5461	70.55	-0.2401	0.0609	0.301	871.4378	0.137876	-421.735145	-421.729057	-421.728113	-421.765254	25.819	
C	-0.0345601132	 1.4765766993	-0.0509468284	-0.24943
C	 1.5171963183	 1.5363144382	 0.0901028266	 0.068585
O	 2.0020657445	 1.380921363	 1.4621705638	-0.343792
C	 1.661978656	 0.0077413971	 1.3849068942	 0.415249
C	 2.02354543	-1.2423914812	 2.1545775689	-0.189347
O	 0.7276759179	-1.7892788987	 1.7556516631	-0.307724
C	 0.1903299569	-0.4678566939	 1.4583222249	 0.079673
C	-0.0057159754	-0.0886140045	-0.0120176337	-0.116046
C	 1.5614665576	 0.0072236411	-0.1604024742	-0.124752
H	-0.629154812	 2.0014003856	 0.7025685992	 0.108475
H	-0.3216223942	 1.8299626189	-1.0453945859	 0.113969
H	 2.0674764024	 2.3143760884	-0.4379073328	 0.086656
H	 2.8607416113	-1.8517395474	 1.7996131397	 0.112559
H	 2.0855413141	-1.113436179	 3.2440733449	 0.111448
H	-0.5389135289	-0.1452416307	 2.2081993839	 0.076537
H	-0.6782808497	-0.6453948468	-0.6635002816	 0.077315
H	 2.2242605244	-0.5277259093	-0.8350165126	 0.080625
