19
gdb 99090	4.25185	0.71949	0.69816	4.0936	75.51	-0.2445	-0.0248	0.2198	1671.958	0.156719	-456.393597	-456.382733	-456.381789	-456.431021	36.809	
C	-0.1118281287	 1.4477226611	 0.1048556677	-0.324671
N	 0.2159807726	 0.0334645242	 0.0785877109	-0.366795
C	 0.5827962091	-0.5731625253	-1.0999138032	 0.512236
O	 0.809452437	 0.0383890851	-2.1298264719	-0.402259
N	 0.6750691403	-1.9584522331	-1.0142671493	-0.390355
C	 1.2924653255	-2.7066577694	-2.0994826916	-0.047624
C	 2.7333402584	-3.1347636791	-1.8244968018	-0.398508
C	 0.3861917626	-3.8759486111	-2.4650561848	 0.15279
O	 0.7690396908	-4.980963522	-2.7485862173	-0.244463
H	 0.4427266125	 1.9327561385	-0.6983492984	 0.17011
H	-1.1818326302	 1.6364418637	-0.0528872651	 0.12311
H	 0.1848412782	 1.8828147966	 1.0634671057	 0.123185
H	-0.1993540024	-0.5451037209	 0.7913013029	 0.237936
H	 0.7826751188	-2.3541647166	-0.0916191504	 0.23533
H	 1.2656540546	-2.0180337572	-2.9559479415	 0.151808
H	 2.7934976939	-3.7562617831	-0.9245095841	 0.115219
H	 3.1142305854	-3.7305741001	-2.6567757919	 0.142591
H	 3.370358969	-2.2573851833	-1.6897801247	 0.128772
H	-0.6960485773	-3.6142150281	-2.4465295111	 0.081589
