17
gdb 62661	2.69152	1.6129	1.46139	3.4745	67.22	-0.225	0.059	0.284	968.0632	0.133116	-458.863286	-458.855041	-458.854097	-458.895384	32.399	
C	-0.1616700232	 1.5782131378	-0.0160464148	-0.467149
C	-0.0415128485	 0.0641885086	-0.0132994896	 0.311237
O	-1.2907499584	-0.565998789	-0.2527312524	-0.488582
C	 1.187889428	-0.592573915	-0.685381865	-0.164405
C	 2.09184577	-0.3552812313	 0.5698948553	 0.019785
O	 2.5369263198	-1.7379127735	 0.6506012452	-0.329588
C	 1.1374008837	-1.834799103	 0.2536907988	 0.00142
C	 0.6782279601	-0.623342887	 1.16208008	 0.348832
O	 0.3541642157	-0.5958074741	 2.4935222817	-0.467202
H	 0.7961124956	 2.0597041783	 0.2018010837	 0.127383
H	-0.4986181692	 1.9429988291	-0.9944988352	 0.109952
H	-0.8888986209	 1.9031595778	 0.7343632915	 0.130628
H	-1.6863905377	-0.175492448	-1.0388229881	 0.280161
H	 1.5139291119	-0.5823308189	-1.7226347068	 0.086587
H	 2.8028122375	 0.4414232627	 0.7819520763	 0.099892
H	 0.6974498858	-2.8163672073	 0.0952853178	 0.104249
H	-0.5566765603	-0.9005845771	 2.5831508017	 0.2968
