19
gdb 117906	2.11695	1.18958	0.79308	3.0138	79.45	-0.2567	-0.0592	0.1976	1450.3153	0.15422	-422.998729	-422.987836	-422.986892	-423.037157	37.394	
C	-1.0838627454	 0.6509453475	 0.3177279118	-0.385233
C	 0.0038729053	-0.3702161454	 0.0325728866	-0.038704
O	 0.5223214461	-0.8223106657	 1.2722507719	-0.254168
C	 1.4849298375	-1.849285235	 1.1842066281	 0.030797
C	 2.8954068631	-1.3392658983	 0.8943313838	-0.404757
C	 1.4348700322	-2.6480681796	 2.495514042	 0.199802
O	 2.4059416536	-3.2198025668	 2.9394237594	-0.293801
C	 0.1428495499	-2.7242253849	 3.1535342096	 0.309942
C	-0.9078755694	-2.8483531941	 3.7274761393	-0.424963
H	-0.6757691971	 1.5014016971	 0.8709402292	 0.129881
H	-1.5136682022	 1.0193977464	-0.6184494467	 0.116282
H	-1.8810334104	 0.2028403658	 0.9170894063	 0.129936
H	-0.402930196	-1.2237599448	-0.5344927207	 0.090417
H	 0.7992913635	 0.0794238974	-0.5812297905	 0.094101
H	 1.1873937828	-2.5714296327	 0.4001256178	 0.097225
H	 2.947524896	-0.8857663058	-0.0987014103	 0.115179
H	 3.1816375879	-0.5904560396	 1.6379372019	 0.132416
H	 3.6080049765	-2.1647318729	 0.9429462224	 0.14299
H	-1.8355611138	-2.9505996387	 4.236101138	 0.21266
