17
gdb 44221	4.05005	1.24487	1.14728	2.1675	74.14	-0.253	0.0217	0.2747	1089.203	0.137293	-417.957354	-417.950021	-417.949077	-417.989386	28.707	
N	 0.3248017422	 0.9360904628	-0.5608972836	-0.544112
C	 0.0809404196	-0.1903739954	-0.0706583738	 0.436573
O	 0.9307772171	-1.1180619236	 0.5178199547	-0.26654
C	-0.1855569422	-2.0256379083	 0.7885306782	-0.003436
C	-1.1647781197	-1.0276973735	 0.1094742215	-0.165774
C	-1.4040604017	-2.0595617273	-1.0413149991	-0.317634
C	-0.4204842487	-3.0189592389	-0.3476090277	 0.347585
C	 0.5540692944	-3.9854106244	-0.8913399405	-0.293405
N	-0.6680349517	-4.4513304549	-0.2058676423	-0.362571
H	 1.3196385181	 1.1612125835	-0.5056647551	 0.229498
H	-0.1995355101	-2.3487738108	 1.8305454137	 0.092975
H	-2.0254057401	-0.5653967318	 0.5859345599	 0.109492
H	-2.4224578134	-2.4536282114	-1.0474890913	 0.127339
H	-1.1434852752	-1.7152053274	-2.0438495854	 0.125418
H	 0.5763593319	-4.1802163116	-1.9599943971	 0.127397
H	 1.5136353796	-4.079752124	-0.3895064742	 0.123895
H	-0.44450861	-4.758010993	 0.738888842	 0.2333
