16
gdb 48558	3.71863	1.47589	1.36806	3.4051	73.3	-0.2384	-0.0235	0.2148	958.2912	0.125724	-400.703559	-400.696998	-400.696054	-400.734645	26.122	
O	-0.1309662976	 0.0027775617	 0.031327069	-0.276942
C	 0.0052044581	 1.2017092414	-0.063929446	 0.0239
C	 1.2802483192	 1.8974494607	 0.0466709533	 0.270022
C	 1.4650959193	 3.3542454475	 0.5276896374	-0.139423
C	 2.6990325864	 3.4367908533	 1.4039594372	-0.247291
C	 3.5380287699	 2.3996284586	 0.6891932806	-0.045557
C	 2.6920280468	 1.3163393168	 0.1322943796	-0.124764
N	 3.248361859	 2.374295652	-0.7830158742	-0.155829
C	 1.8742087095	 2.9894642358	-0.852422461	-0.063586
H	-0.864670407	 1.8705736414	-0.2601547354	 0.063594
H	 0.5787891367	 3.9542478054	 0.691609432	 0.109669
H	 3.1523486064	 4.433071671	 1.377121572	 0.120338
H	 2.5045041417	 3.1631964076	 2.4455410161	 0.121276
H	 4.5764037159	 2.2238649116	 0.9439633792	 0.107767
H	 2.9550212424	 0.2717780412	 0.0321139304	 0.119039
H	 1.5030530634	 3.4029224041	-1.7799668403	 0.117789
