20
gdb 69553	2.78497	1.52889	1.35868	3.1505	78.86	-0.2219	0.0754	0.2972	1063.4103	0.170335	-403.082229	-403.073945	-403.073001	-403.114412	32.992	
C	-0.0643498752	 1.5741521429	 0.0593466175	-0.511497
C	 0.0946469027	 0.0868593121	-0.0019590177	 0.340214
N	-0.8007200471	-0.8364321142	 0.7255788723	-0.364083
C	 0.6614031832	-0.9013615687	 0.9711451628	-0.176916
C	 1.3032425007	-1.7148691274	-0.1887207509	 0.483812
C	 2.7694420601	-2.0310992593	-0.0588587134	-0.481195
O	 0.5140375036	-2.807668744	-0.7065641636	-0.328003
C	-0.1141670852	-1.9484568381	-1.6931783347	-0.093651
C	 0.6754491446	-0.7185226146	-1.1967520069	-0.19926
H	 0.8312767097	 2.0835490159	-0.3125108975	 0.125167
H	-0.913276485	 1.9079101137	-0.5495550139	 0.129746
H	-0.2380121956	 1.9088124673	 1.0881453618	 0.117971
H	-1.2036168473	-0.3143668434	 1.5039266972	 0.224458
H	 1.0544751814	-0.7620071757	 1.9731706471	 0.081852
H	 2.9170369575	-2.8276973127	 0.6794839778	 0.130059
H	 3.1801093461	-2.3712724814	-1.013584114	 0.123803
H	 3.3311058762	-1.1516343265	 0.2737078232	 0.116064
H	 0.1426999796	-2.2674688908	-2.7105642337	 0.090628
H	-1.1990988597	-1.9091316125	-1.5685197178	 0.115752
H	 1.2809429196	-0.1546814625	-1.9057891855	 0.075078
