17
gdb 85451	2.6362	1.48238	1.10917	4.6311	68.05	-0.2671	0.0087	0.2758	1101.561	0.135122	-458.992206	-458.984103	-458.983159	-459.025162	30.472	
C	 0.0802362055	 1.6736777668	-0.0569780565	-0.398638
C	 0.0604470654	 0.1560661405	 0.0801417764	 0.046583
O	 0.7008853953	-0.4359594124	-1.0709944419	-0.23007
C	 1.9120888627	-0.9827640749	-0.7689130043	 0.433728
O	 2.6111782598	-1.485760532	-1.5968266298	-0.330886
C	 2.178299504	-0.8247409813	 0.725610277	-0.457912
C	 0.8387694208	-0.3948152148	 1.2768391279	 0.392393
C	 0.5486917801	-0.0562490528	 2.6698273169	-0.250531
O	 0.1470832182	-1.3164068729	 2.1212843561	-0.26622
H	 1.1042365369	 2.0596297492	-0.0291784134	 0.125059
H	-0.3704198144	 1.9682823161	-1.0079641064	 0.142436
H	-0.4873056524	 2.139075975	 0.7540898521	 0.125739
H	-0.9655887168	-0.2212619485	 0.1081622927	 0.117906
H	 2.5322617234	-1.7607859244	 1.159620371	 0.159937
H	 2.9575059049	-0.067540959	 0.863138007	 0.147235
H	 1.3460367673	-0.0986191756	 3.4108533337	 0.122883
H	-0.2637108407	 0.6296451711	 2.9076454015	 0.120358
