21
gdb 108794	3.63836	1.02136	0.97857	1.4031	81.85	-0.2105	0.0638	0.2743	1352.9765	0.182265	-420.439641	-420.429729	-420.428784	-420.474649	36.204	
C	-0.0468157073	 1.4383992739	 0.0633438948	-0.327714
N	-0.0373207871	-0.0140336567	 0.1237830124	-0.373127
C	-1.1812679671	-0.7528604568	 0.054140369	 0.490088
N	-1.2694138987	-1.971810547	-0.3169155482	-0.401993
C	-2.6651428863	-2.3853114603	-0.0822828883	 0.284407
C	-3.2494837703	-3.0214294591	-1.3480670352	-0.415331
C	-2.7158396778	-3.3776970224	 1.0904387194	-0.407748
C	-3.3772476642	-1.0431727867	 0.2744785986	-0.138983
O	-2.3038829538	-0.1036229529	 0.4763338584	-0.258593
H	 0.9329169854	 1.8101532475	 0.373286837	 0.127583
H	-0.2676025186	 1.8322659797	-0.9393575732	 0.118959
H	-0.7959026056	 1.824696966	 0.755281925	 0.156164
H	 0.7435182807	-0.4830912892	-0.3083598348	 0.254696
H	-2.6934329755	-3.9268598285	-1.607157762	 0.123147
H	-4.3015446007	-3.2935264837	-1.2048264192	 0.104231
H	-3.1817864212	-2.3303984123	-2.1936137256	 0.110149
H	-2.3311251747	-2.915323375	 2.0049384151	 0.113514
H	-3.7413144029	-3.7160701504	 1.2792157537	 0.102218
H	-2.0972702452	-4.2519489023	 0.8693737361	 0.122918
H	-4.0103929855	-0.6728492486	-0.5397477695	 0.10388
H	-3.9680889436	-1.0880359154	 1.1930784264	 0.111536
