18
gdb 54661	3.35933	1.26126	0.98889	1.7848	79.17	-0.2301	-0.0547	0.1753	1198.0143	0.147515	-401.949459	-401.941276	-401.940332	-401.982618	30.841	
C	-0.043127189	 1.5014666185	-0.0044718799	-0.492336
C	 0.02358583	-0.0143324653	 0.0048517032	 0.288726
O	 1.0829584196	-0.6080584412	 0.0190064022	-0.306514
C	-1.272785684	-0.7448258456	-0.0034023457	 0.246396
C	-1.388175593	-2.0807266132	 0.0106992365	-0.164969
C	-2.8351213769	-2.4952023198	-0.0342931823	-0.210045
N	-3.6228533688	-1.2405300695	-0.0189146144	-0.101769
C	-3.4706836622	-0.4412932027	 1.2000423592	-0.235616
C	-2.638892584	-0.1305962409	 0.0013368755	-0.161929
H	 0.9650056499	 1.9131377259	 0.0471540376	 0.141786
H	-0.5362892383	 1.8550366482	-0.9177811012	 0.141009
H	-0.6406132853	 1.8656583283	 0.8389851465	 0.141239
H	-0.5515834349	-2.7668510805	 0.0621659331	 0.131655
H	-3.0637957364	-3.0556512017	-0.9512492777	 0.126302
H	-3.1202095228	-3.1418248242	 0.8056692659	 0.124425
H	-4.3355438385	 0.1700245632	 1.4432200426	 0.119863
H	-2.9583755498	-0.8794415643	 2.0547392246	 0.11308
H	-2.8558253855	 0.7387541147	-0.6132472556	 0.098697
