20
gdb 89876	3.53104	0.89307	0.81612	3.6695	81.99	-0.2435	-0.0234	0.2201	1471.7409	0.16952	-403.126102	-403.116983	-403.116039	-403.160602	33.961	
C	-0.9045088772	 1.2680732636	 0.0064966297	-0.40715
C	 0.0417816211	 0.0807168053	 0.0874625512	 0.052103
C	 1.2639955312	 0.0448347485	-0.8843682354	-0.300918
C	 2.1417068095	-0.3515804889	 0.3089697419	 0.343995
C	 1.0279964773	 0.0119580517	 1.2981469269	-0.319667
N	 2.9317283635	-1.5643299736	 0.324070431	-0.372585
C	 3.6212556454	-0.261861202	 0.5233273482	-0.205742
C	 4.5166347989	 0.1523019906	-0.5873736245	 0.182831
O	 5.4200228223	 0.9431255314	-0.4712659393	-0.26519
H	-0.3553850216	 2.2138699628	 0.0804823772	 0.115751
H	-1.4520627584	 1.2742138695	-0.94227239	 0.119762
H	-1.6418152167	 1.2458587066	 0.8165613414	 0.117343
H	-0.5227100599	-0.8539494176	 0.0128817237	 0.08062
H	 1.2305953415	-0.6711764277	-1.7081402488	 0.114946
H	 1.5070870717	 1.0363368029	-1.2799908615	 0.108604
H	 1.1818622551	 0.9899113206	 1.7660058534	 0.111878
H	 0.8103941258	-0.7202078146	 2.0818434039	 0.102541
H	 2.8513750261	-2.0430908345	 1.2186686465	 0.238403
H	 3.9609879432	 0.018525359	 1.5177670347	 0.10134
H	 4.2735378412	-0.3317183738	-1.55948052	 0.081135
