19
gdb 88553	3.62141	1.09254	1.06791	2.0301	75.47	-0.2334	0.0698	0.3032	1212.075	0.158109	-422.95839	-422.94997	-422.949025	-422.991804	31.776	
C	 0.3460510273	 1.4518142316	-0.4671413388	-0.431833
C	 0.0150827164	 0.0535584816	-0.0150813089	 0.091371
O	 1.093666759	-0.8801980374	 0.1226021635	-0.258599
C	 0.3729891702	-0.511160934	 1.3030343058	-0.103585
C	 1.1222218593	 0.2126075683	 2.3614820051	 0.283819
C	 2.5172493017	 0.7854329024	 2.2096088252	-0.346551
C	 2.2561650744	-0.2420861484	 3.2633053866	 0.044436
O	 1.6763216786	 0.3495511885	 4.4283604253	-0.286304
C	 0.5097610365	 0.7424799257	 3.6594571753	-0.138305
H	 1.1838519415	 1.8698062989	 0.0920155076	 0.140641
H	 0.6033711117	 1.4543011314	-1.5315750978	 0.130015
H	-0.5241310266	 2.1039715665	-0.3341270701	 0.122011
H	-0.8626954128	-0.3821597451	-0.4979695213	 0.088875
H	-0.2760824701	-1.3037193769	 1.68498059	 0.088995
H	 3.0327641714	 0.4225423712	 1.3265432433	 0.136377
H	 2.7368689238	 1.8089650036	 2.5032101325	 0.111852
H	 2.773883019	-1.1880702342	 3.3720584656	 0.112908
H	 0.3052964393	 1.8179388968	 3.7239633469	 0.106087
H	-0.3724508805	 0.1785944995	 3.9864706545	 0.10779
