15
gdb 20407	4.71946	2.07005	1.48783	0.9436	66.06	-0.2459	-0.0036	0.2423	810.6157	0.123592	-358.858131	-358.852109	-358.851165	-358.888236	23.323	
C	 0.1174719519	 1.4328563147	-0.3219601556	-0.204734
C	 1.4568358349	 1.9999252816	 0.2662377994	-0.344047
C	 2.1497625177	 0.7378888396	 0.6737798411	 0.312419
N	 3.3614893149	 0.3584316029	 1.0630694742	-0.314945
N	 3.1801735699	-0.9493215799	 1.28459113	-0.098778
N	 1.9559666997	-1.4456469917	 1.0674640644	-0.314945
C	 1.2907471868	-0.3647125414	 0.6764657006	 0.312419
C	-0.1033965247	-0.0027331546	 0.2711163394	-0.344047
H	-0.7300430381	 2.0936149795	-0.1264738765	 0.105361
H	 0.218849468	 1.3512286273	-1.4083489775	 0.116192
H	 2.0071224474	 2.5966682408	-0.4661240421	 0.122118
H	 1.271596279	 2.6467458481	 1.1325471704	 0.121168
H	 3.9421401509	-1.5422594642	 1.5701043357	 0.288532
H	-0.7738302936	 0.0213093336	 1.1389429272	 0.121168
H	-0.54915248	-0.6844745402	-0.4581310008	 0.122118
