20
gdb 39723	3.20299	1.65261	1.61252	1.6837	81.06	-0.2325	0.097	0.3295	948.6328	0.174848	-365.994546	-365.987943	-365.986998	-366.025129	28.445	
C	 0.0015484201	 1.5111521149	 0.020046547	-0.354992
C	 1.3080413848	 0.7426300855	-0.0017612537	-0.35063
C	-0.0015999831	 0.0109948665	-0.010496149	 0.457769
C	-0.5006781126	-0.8579751119	 1.1166618409	-0.124041
C	-1.7497135894	-1.5156551517	 0.6344464997	-0.037928
C	-2.0023061198	-1.0204290948	-0.7874679406	-0.236601
C	-0.5130348267	-0.847058225	-1.1679607841	-0.157847
C	 0.0396505346	-2.2181288339	-0.7276294008	-0.155375
N	-0.4724141803	-2.2762041539	 0.667575259	-0.132329
H	-0.2816075375	 2.0094940229	 0.9416946826	 0.112983
H	-0.2896057507	 2.0445881099	-0.8792016627	 0.111856
H	 1.8922268294	 0.7608537742	-0.9164860286	 0.111216
H	 1.9041090998	 0.7236274176	 0.9049548312	 0.114443
H	-0.2772655478	-0.6572609975	 2.1580932846	 0.085839
H	-2.5417933138	-1.8550066257	 1.2909068727	 0.08826
H	-2.5217629911	-1.7547523536	-1.4112158608	 0.097632
H	-2.5593573298	-0.0791394206	-0.8085925069	 0.102686
H	-0.288491093	-0.5057693949	-2.1774057793	 0.064782
H	-0.3564693148	-3.0589911463	-1.3048969024	 0.097781
H	 1.1321616116	-2.2659673617	-0.725472459	 0.104496
