17
gdb 44524	4.39983	1.2695	1.13169	4.3009	80.35	-0.2335	-0.0403	0.1932	1076.5065	0.13756	-384.672087	-384.665239	-384.664295	-384.703313	27.801	
O	 0.0850561437	 0.0276653264	 0.0780303523	-0.32715
C	 0.0160497005	 1.2316355168	 0.0345397299	 0.389729
C	-1.3157213655	 2.0575512846	 0.0431707411	-0.382634
C	-0.8333472642	 3.4402029476	-0.3945081402	-0.037393
C	-0.9110909518	 4.8532053538	 0.2435623331	-0.094893
C	-0.2336678601	 4.9192950409	 1.5744784536	-0.264939
C	 0.6402364749	 4.8689713704	 0.3250840911	-0.177851
C	 0.6400150064	 3.4281374869	-0.0733087491	 0.338132
C	 1.1548810476	 2.2047247087	 0.0801192847	-0.369482
H	-2.0716862442	 1.588952189	-0.5897485974	 0.121564
H	-1.6904256798	 2.0548970507	 1.0737030645	 0.1304
H	-0.961559765	 3.5694070311	-1.4762806997	 0.10537
H	-1.5668165046	 5.6435732214	-0.1001642266	 0.097095
H	-0.2601618454	 5.8896208362	 2.0610612964	 0.123924
H	-0.2435760787	 4.0769678141	 2.25983405	 0.125314
H	 1.3544290672	 5.648818509	 0.0971760436	 0.109507
H	 2.1656458391	 1.8989787023	 0.315349093	 0.11331
