21
gdb 116319	2.97014	1.25723	0.97874	1.0779	78.03	-0.2493	0.0821	0.3314	1265.4245	0.183595	-424.215288	-424.206722	-424.205777	-424.248647	32.734	
C	-0.0936414308	 1.5447979659	 0.0720390701	-0.394277
C	-0.0132304554	 0.0178569395	-0.0307270486	-0.180842
C	 0.7632552452	-0.4999913311	-1.2539058195	-0.019281
C	 2.2436179334	-0.0817700602	-1.2474448586	-0.098413
O	 2.9511827276	-0.6718326278	-2.324988575	-0.251766
C	 3.1105677991	-2.0705225829	-2.1835137774	-0.103403
C	 1.8306898044	-2.7920841612	-1.8002079119	 0.014844
O	 1.4650660738	-2.7482378558	-0.4125727181	-0.262503
C	 0.6707318111	-2.0101842688	-1.3499172371	 0.047566
H	 0.8913531231	 1.9990411364	 0.2175207603	 0.122102
H	-0.5299744365	 1.9810305272	-0.8336827908	 0.115373
H	-0.7186689727	 1.8443876915	 0.9187644104	 0.115932
H	 0.4450877945	-0.3959270972	 0.8759775109	 0.113667
H	-1.0304624786	-0.3926559314	-0.0692981226	 0.09523
H	 0.3053653719	-0.0929443264	-2.1671495504	 0.079799
H	 2.3413572213	 0.997890619	-1.3813778642	 0.108969
H	 2.7024527855	-0.3549387881	-0.2842485154	 0.100668
H	 3.4627747657	-2.4337196535	-3.1541981865	 0.110766
H	 3.8840603655	-2.3012939006	-1.4318949486	 0.102826
H	 1.6717716805	-3.7646583832	-2.2659169626	 0.095084
H	-0.3301209186	-2.4174503415	-1.5032470241	 0.087658
