19
gdb 67052	2.73722	1.70282	1.44484	2.613	81.07	-0.235	-0.0204	0.2147	985.403	0.158525	-385.792976	-385.78522	-385.784276	-385.824773	31.342	
C	-0.1084071938	 1.5170309861	-0.1935518971	-0.480027
C	-0.084197858	 0.0036656792	-0.0193900005	 0.217563
C	-1.1657152291	-0.6960480633	 0.8847650208	-0.118617
C	-0.2628510682	-1.9436730552	 0.8794518645	-0.252211
C	 0.709407407	-0.7358322254	 1.0892847836	 0.265779
C	-0.3154389612	-0.2029728172	 2.1413150061	-0.325983
C	 2.0084316591	-0.765590464	 0.2719190722	-0.446207
C	 1.0261635291	-0.6076526909	-0.9742040176	 0.309417
O	 1.1496885385	-0.8089802371	-2.1410164861	-0.286249
H	 0.8971527501	 1.9415229638	-0.3015067054	 0.119569
H	-0.6568119737	 1.7643548591	-1.1090305183	 0.13677
H	-0.6035904958	 2.0286040696	 0.6361038955	 0.121765
H	-2.2554278492	-0.6614152253	 0.7991664682	 0.074184
H	-0.3546653188	-2.6319825805	 1.7234157724	 0.091708
H	-0.1859362328	-2.4856587156	-0.0674437728	 0.110444
H	-0.30511802	 0.8650224996	 2.3586621224	 0.104743
H	-0.4454429792	-0.7882298084	 3.0556822642	 0.100707
H	 2.6308528613	 0.1306865494	 0.3624177962	 0.131563
H	 2.6427404848	-1.6542286239	 0.3043261617	 0.125083
