23
gdb 112915	1.99763	1.37824	0.96523	2.2954	82.15	-0.2429	0.074	0.3169	1336.8821	0.205078	-425.431048	-425.420978	-425.420034	-425.466467	37.469	
C	-0.6356296901	 1.0916889599	 0.1177727964	-0.232581
O	-0.2623637606	-0.2634357839	 0.1430852206	-0.242982
C	 0.7837862152	-0.5654269777	 1.0562854653	 0.122423
C	 0.2699577721	-0.6710334066	 2.5149417271	-0.270578
C	 0.0294601448	-2.1879340706	 2.7885977909	 0.132777
O	-1.2724939883	-2.4949238971	 3.2657094209	-0.436444
C	 0.2496374529	-2.8736360353	 1.4352860334	-0.213589
C	 1.2900462857	-1.987081207	 0.7347302303	 0.008588
C	 1.5151993578	-2.2770669751	-0.7466904172	-0.40715
H	 0.2161088435	 1.7420383206	-0.1390296615	 0.101192
H	-1.407368762	 1.2016267366	-0.6483771023	 0.126042
H	-1.0484690284	 1.4356474361	 1.078480347	 0.102958
H	 1.5793000136	 0.1883347452	 0.9491489692	 0.049987
H	 0.9891816859	-0.2442910969	 3.2212592565	 0.090196
H	-0.6720691978	-0.1279992469	 2.6312543405	 0.107479
H	 0.7816815691	-2.5496628377	 3.5066379101	 0.059848
H	-1.3591737628	-2.131273613	 4.1522065384	 0.278351
H	 0.5591962467	-3.9173536406	 1.5345151998	 0.090364
H	-0.694673602	-2.8486421337	 0.8806024158	 0.120838
H	 2.2465299484	-2.0992659884	 1.266527521	 0.06722
H	 0.5908499228	-2.1418834062	-1.3124407768	 0.133228
H	 2.2699086767	-1.6063220998	-1.1718356942	 0.105293
H	 1.8638075865	-3.304801772	-0.8917953914	 0.10654
