16
gdb 37548	4.1587	1.71759	1.48032	2.8909	73.47	-0.2211	0.011	0.2321	877.773	0.127042	-396.796569	-396.790607	-396.789663	-396.826631	25.017	
C	 0.0083113442	 1.4891250534	 0.1028808185	-0.301
N	 1.4605876162	 1.8521197113	 0.0440702218	-0.242917
C	 2.0931708804	 0.8673727298	-0.4859187302	 0.032941
N	 1.3008112698	-0.1802783789	-0.9699865312	-0.134737
C	 1.051041874	-1.561947396	-0.440151233	-0.051306
C	 0.4938120163	-1.0881350275	 0.9382024561	-0.073088
N	-0.8298879923	-1.7768212625	 0.8167616681	-0.342022
C	-0.5168206066	-1.3708575395	-0.5872513879	-0.143475
C	 0.0818089018	-0.0004040588	-0.1319483881	 0.373999
H	-0.4156418044	 1.764545969	 1.0701230221	 0.128248
H	-0.5315722494	 2.0316742669	-0.6833032917	 0.122829
H	 3.1630715074	 0.8966599807	-0.671009623	 0.122773
H	 1.6578825898	-2.4317277907	-0.6963823316	 0.095268
H	 1.0192127905	-0.9534631266	 1.8840441014	 0.098423
H	-0.7143352981	-2.7877467404	 0.9245306397	 0.214224
H	-1.1498211197	-1.5874539804	-1.447212051	 0.099839
