20
gdb 76732	1.98425	1.81378	1.23165	2.0023	75.58	-0.2384	0.052	0.2903	1102.2255	0.16926	-440.250322	-440.240763	-440.239819	-440.284026	36.284	
C	 0.0597034819	 1.5743343222	-0.0341332501	-0.49389
C	-0.0392234742	 0.0867984826	 0.094989076	 0.247201
N	 1.0954718598	-0.7705820052	-0.2493578704	-0.412392
C	 0.5250007073	-0.9012817922	 1.0922184739	 0.294359
C	 1.3963306065	-0.7534793168	 2.3013877707	-0.495996
C	-0.7371287014	-1.7669398367	 1.0076809939	-0.01723
O	-1.4564164593	-1.7201607777	 2.2312370707	-0.428044
C	-1.3344698063	-0.743221102	-0.0471493039	 0.052105
O	-2.5133828763	-0.1338307752	 0.4013946689	-0.433239
H	 1.0131592871	 1.9386124563	 0.3578729003	 0.126273
H	-0.0091194481	 1.8785490986	-1.0851575157	 0.12268
H	-0.7589713251	 2.0570786873	 0.5075363854	 0.126009
H	 0.8460105001	-1.5382665867	-0.8740316674	 0.219619
H	 2.0951156924	 0.0765312937	 2.168377627	 0.129772
H	 0.7904281701	-0.5712589675	 3.1933207233	 0.131092
H	 1.9857189744	-1.6621566682	 2.4725059786	 0.119565
H	-0.5878886172	-2.8071885907	 0.685533411	 0.063586
H	-2.1851002309	-2.3473011748	 2.1745548949	 0.296961
H	-1.5228587623	-1.1258538044	-1.0582636335	 0.07098
H	-2.4914047384	-0.2054654928	 1.3677695263	 0.280589
