16
gdb 30394	3.01829	1.3597	0.94327	4.1692	79.73	-0.2132	-0.0111	0.2021	1199.8429	0.125338	-434.105092	-434.096733	-434.095789	-434.13832	30.93	
C	 0.0172072112	 1.423782309	 0.1049395166	-0.325602
N	 0.0842050878	-0.0228092165	 0.0568319368	-0.325414
C	 0.6126041731	-0.5971902855	-0.9557558331	 0.354927
C	 0.6765818766	-2.0592203804	-0.9982214607	-0.180775
C	 1.223970571	-2.6690647768	-2.0470455597	 0.034603
O	 1.7477237236	-1.9713185616	-3.1112585348	-0.233039
C	 1.6651846214	-0.6103545592	-3.0218846785	 0.482406
N	 2.2608489732	-0.0345262786	-4.1026737683	-0.562297
N	 1.1499822062	 0.0712583511	-2.0713524106	-0.398424
H	 0.5275234117	 1.774337018	 1.0111661276	 0.115319
H	 0.4516079237	 1.9289500779	-0.7646667891	 0.116927
H	-1.0321458502	 1.7295987558	 0.2058706759	 0.114508
H	 0.2719798465	-2.6262676705	-0.1710582306	 0.123355
H	 1.3271231411	-3.7352402949	-2.1949409298	 0.138925
H	 2.3693862173	-0.5978263748	-4.9298186885	 0.268806
H	 2.0662453256	 0.944606177	-4.2309887131	 0.275775
