21
gdb 106102	3.52219	1.16475	1.08276	1.5825	82.82	-0.2311	0.07	0.3012	1224.5933	0.182741	-387.035992	-387.027251	-387.026307	-387.069368	33.574	
C	 0.0659045916	 1.5868091154	-0.4498144029	-0.424205
C	 0.1192055336	 0.0866040568	-0.1884819533	 0.042075
C	 1.0630806923	-0.8270221976	-0.972566121	-0.124634
C	 2.410696448	-0.8774991949	-0.2178280085	-0.110448
C	 2.2828174842	-0.0004037423	 1.0250545455	-0.236721
C	 0.8102124892	-0.490456354	 1.0889006488	-0.154747
C	 1.2495947392	-1.7394112026	 0.2112617044	 0.393633
C	 1.0990078261	-3.2125131479	 0.3743257685	-0.248715
O	 1.7075638546	-3.834402868	-0.7508461185	-0.419135
H	 1.0608797613	 2.0401748489	-0.4571483457	 0.118313
H	-0.39242796	 1.7900181183	-1.4242859324	 0.112221
H	-0.5349848099	 2.0996877611	 0.3103537195	 0.108836
H	-0.8934577434	-0.3313509848	-0.2436208177	 0.065508
H	 1.0098134521	-1.1172335098	-2.0142379069	 0.085593
H	 3.3092431292	-1.2036648687	-0.7249158732	 0.088904
H	 2.8674176004	-0.4112212713	 1.8536791966	 0.094572
H	 2.4685930384	 1.0770416887	 0.9554763822	 0.085392
H	 0.2749083431	-0.5234753062	 2.0370639857	 0.061238
H	 1.5747663206	-3.5407858637	 1.3144072575	 0.086711
H	 0.0304575208	-3.4791699338	 0.4454831116	 0.086705
H	 1.6197339285	-4.7863817136	-0.6476986303	 0.288903
