15
gdb 12651	3.36862	2.00325	1.31097	4.4351	63.6	-0.2562	-0.0683	0.1879	902.5194	0.11906	-399.831674	-399.8242	-399.823256	-399.8637	27.072	
C	-0.230465948	 1.5543555619	 0.0196037606	-0.408808
C	 0.1245492861	 0.0710890314	-0.0011699671	-0.112185
C	 0.9594826915	-0.4215907928	-1.1892406617	-0.110613
O	 1.7706461996	-1.5162371938	-0.6994221195	-0.240029
C	 1.9033893132	-1.4578361627	 0.6529026849	 0.321858
N	 2.6489943114	-2.1848313194	 1.3651635513	-0.501879
C	 0.9727240004	-0.3806805278	 1.1850222985	 0.319394
O	 0.9263879819	 0.0270955276	 2.312203125	-0.282064
H	 0.6666142669	 2.1733886473	-0.0821221749	 0.129127
H	-0.9176157478	 1.8115973848	-0.7913481367	 0.123472
H	-0.7037266917	 1.8068421873	 0.9716725815	 0.150177
H	-0.7944096437	-0.5310015305	 0.0535405913	 0.125711
H	 0.3691019402	-0.8048779026	-2.0231154494	 0.130344
H	 1.6257419024	 0.366153655	-1.5618752473	 0.12298
H	 3.1789801577	-2.8404998057	 0.7860255134	 0.232516
