17
gdb 60885	2.15987	1.49225	1.08029	2.3037	69.69	-0.2606	-0.0404	0.2202	1137.9897	0.13334	-458.9692	-458.96024	-458.959295	-459.003189	32.646	
O	-0.4503057772	 1.2251168539	 0.1190686527	-0.440225
C	-0.0016107394	-0.0953188958	-0.0200003178	-0.035397
C	 0.9119999776	-0.1953319742	-1.2342979893	 0.130419
O	 1.1734134767	 0.7855532357	-1.890758621	-0.267268
C	 0.7308182432	-0.5770623056	 1.239069784	 0.214926
C	 1.7341296451	 0.3553348833	 1.914618079	-0.299651
C	 0.4220244818	 0.10625273	 2.5686903684	-0.307955
C	 1.0208401854	-2.0240582383	 1.3089058272	 0.10543
O	 0.7701818574	-2.8178061091	 0.4309657498	-0.281756
H	-0.0438941696	 1.7102904099	-0.6189810184	 0.298462
H	-0.8467145823	-0.7810458787	-0.1955459435	 0.114398
H	 1.3138697629	-1.1947437689	-1.4715616822	 0.133973
H	 2.6301639742	-0.0853062671	 2.3377274894	 0.126927
H	 1.87586058	 1.3096103347	 1.4206600002	 0.142242
H	-0.3246601897	 0.8880970325	 2.518539836	 0.15882
H	 0.3890702375	-0.5224132762	 3.4521241382	 0.125828
H	 1.4993484963	-2.351386376	 2.2603383873	 0.080828
