17
gdb 48301	2.39697	0.85096	0.66203	2.4838	77.32	-0.2585	-0.061	0.1976	1622.523	0.13115	-421.803989	-421.793716	-421.792771	-421.841271	34.697	
O	-0.0352990083	-0.0643359992	-0.0342979608	-0.240841
C	 0.0252204458	 1.1277056687	 0.1112144291	 0.157187
C	 1.3114921694	 1.9362053819	 0.0728815308	-0.162316
C	 1.3288976376	 2.8124809894	-1.2097043274	-0.217871
C	 1.4212337034	 1.9702972466	-2.5000721562	-0.363617
C	 1.4395723814	 2.8054237251	-3.6935934932	 0.285513
C	 1.4518112692	 3.5211849516	-4.6587847933	-0.421437
C	 1.3988645988	 2.8567583793	 1.2809681089	 0.1453
O	 2.3519291805	 2.9267549861	 2.009321424	-0.23467
H	-0.895948831	 1.7379213476	 0.2624064627	 0.086019
H	 2.1651184137	 1.2538778903	 0.0868846219	 0.121268
H	 0.4305468362	 3.4398418666	-1.2467927237	 0.124016
H	 2.1851420293	 3.4921701173	-1.1609877109	 0.139435
H	 2.3273619497	 1.3526988666	-2.4648440552	 0.145058
H	 0.5808571313	 1.2674732069	-2.5518817798	 0.150045
H	 1.4646444003	 4.1392532337	-5.5221757523	 0.200772
H	 0.5041476124	 3.5029292915	 1.4360589653	 0.086139
