20
gdb 90815	3.27535	1.72392	1.51257	2.0089	79.34	-0.2376	0.0767	0.3143	954.7885	0.17436	-365.968709	-365.961913	-365.960969	-365.999714	28.449	
C	-0.1993922022	 1.5784656026	-0.0065984087	-0.402707
C	-0.0029600424	 0.0612634457	-0.0251189362	 0.022835
C	 0.7818442207	-0.4686033688	-1.2751468671	-0.257935
C	 1.931046598	-1.2995405738	-0.686330565	-0.027461
C	 2.9719390296	-0.4981912531	 0.0951864185	-0.048819
C	 2.2486847611	 0.0394735543	 1.2883487775	-0.050504
C	 0.8130061548	-0.4771473065	 1.164570884	-0.036533
C	 1.5191064614	-1.7828869784	 0.7284269229	-0.02423
N	 2.8681120722	-1.329272939	 1.3414155539	-0.181063
H	 0.7660249388	 2.0969105007	-0.0261877302	 0.11781
H	-0.7739696467	 1.914413834	-0.8759463941	 0.113953
H	-0.7360997409	 1.902239908	 0.8919490203	 0.111014
H	-0.9919129148	-0.4141193904	-0.0022060347	 0.06936
H	 0.1364871619	-1.0766174396	-1.9176260405	 0.096398
H	 1.1625165086	 0.3524769841	-1.8927689444	 0.097783
H	 2.3631088009	-2.0572631745	-1.3409617623	 0.072651
H	 3.9217951628	-0.1024738587	-0.2464948572	 0.089765
H	 2.6323427794	 0.8539393456	 1.8915761922	 0.091199
H	 0.2824198956	-0.5184787953	 2.1173112221	 0.070237
H	 1.1319810612	-2.7780324568	 0.9375934991	 0.076249
