14
gdb 9583	4.638	1.28591	1.20125	2.181	66.29	-0.2599	-0.0469	0.213	1001.5078	0.103016	-382.494644	-382.486271	-382.485327	-382.527545	29.653	
C	-0.0511853833	 1.605399991	-0.078168884	-0.471737
C	-0.0297612312	 0.104654444	 0.0162843607	 0.278993
O	 1.2175071182	-0.5707783319	-0.2000396546	-0.265055
C	 0.6729342384	-0.6268076079	 1.1182875292	-0.218922
C	 1.3522058937	 0.0763270219	 2.1704309498	 0.32457
C	 1.9075823178	 0.6368605812	 3.0769798663	-0.387383
C	-1.1911338791	-0.6398786297	-0.5820789445	 0.128966
O	-2.2199802647	-0.1204976433	-0.9267834643	-0.245287
H	 0.7651576639	 2.0428919907	 0.497391085	 0.142229
H	 0.0416452881	 1.9139844851	-1.1234237337	 0.141406
H	-1.0057827917	 1.9834108833	 0.296358568	 0.147737
H	 0.2945055935	-1.6112429514	 1.3961824305	 0.124192
H	 2.4039437257	 1.1337018858	 3.8742801364	 0.210235
H	-1.0071246693	-1.7325457087	-0.6856804445	 0.090058
