12
gdb 42388	3.4239	0.96995	0.75583	6.102	72.32	-0.2707	-0.0768	0.1939	1372.4741	0.074041	-435.454215	-435.445186	-435.444242	-435.488988	31.165	
O	-0.2681938028	-0.173722379	 0.0029299369	-0.290493
C	-0.0995682612	 1.0178533159	 0.0055705857	 0.312646
N	 1.1467566499	 1.6576445444	-0.0022228236	-0.399662
C	 2.4100282063	 1.0520754353	-0.0144927545	 0.312651
O	 2.6110128847	-0.1344582818	-0.0205896619	-0.290491
C	 3.4763748541	 2.0446223238	-0.0193527882	 0.190853
C	 4.3765717351	 2.8415512103	-0.0237281821	-0.371184
C	-1.1925273964	 1.9809552563	 0.0175328914	 0.190855
C	-2.114062617	 2.7530575794	 0.0275412018	-0.37118
H	 1.1330131249	 2.6676699926	 0.0014774412	 0.276131
H	 5.1839613853	 3.5334885019	-0.0284821276	 0.219938
H	-2.9398618729	 3.4228705509	 0.036713081	 0.219937
