22
gdb 64279	2.79048	1.41478	1.25159	2.6818	81.22	-0.2125	0.06	0.2725	1127.0206	0.195058	-404.333207	-404.324542	-404.323598	-404.365873	35.013	
C	 0.0483954387	 1.5469426049	 0.0220619497	-0.428113
C	-0.0226841952	 0.017348575	-0.0178349368	 0.35075
O	-1.3954361118	-0.4003898605	-0.0099793221	-0.461318
C	 0.6855822363	-0.5531843427	-1.2582221061	-0.254204
C	 0.5436878058	-2.0785155215	-1.3061077081	-0.225842
C	 0.9445024498	-2.7407208167	-0.000853985	 0.020088
C	 2.2159644667	-2.3871170564	 0.6842190955	-0.251869
N	 0.9322098154	-1.9979745092	 1.2647949125	-0.095249
C	 0.5847319483	-0.5697501315	 1.2719778194	-0.15191
H	 1.0834704121	 1.9027679607	 0.0016136791	 0.113651
H	-0.4690618678	 1.9772461133	-0.8440330797	 0.100807
H	-0.4338664269	 1.9284058744	 0.9271926778	 0.124393
H	-1.8145257356	-0.0455498588	-0.8019092074	 0.273162
H	 0.2522558586	-0.1086330425	-2.1637924762	 0.083354
H	 1.7399764053	-0.2520185645	-1.247616344	 0.099198
H	-0.5047513002	-2.3213667451	-1.5049586733	 0.108643
H	 1.1316246678	-2.4977194218	-2.1312128547	 0.096058
H	 0.583203982	-3.762971597	 0.104048212	 0.085282
H	 2.7768129502	-3.1353716151	 1.2398441484	 0.106747
H	 2.8347023862	-1.6110368885	 0.2344760886	 0.098379
H	 1.4789246315	 0.0056706435	 1.537659588	 0.0929
H	-0.1522973973	-0.4093059298	 2.0664388923	 0.115094
