22
gdb 79469	2.36528	1.88982	1.45982	1.5423	85.01	-0.22	0.0868	0.3068	1031.2194	0.195994	-367.173009	-367.165059	-367.164115	-367.204859	32.628	
C	-0.1894755643	 1.596558061	-0.0288021661	-0.43548
C	 0.0506403749	 0.0993380154	 0.0458458057	 0.057884
N	 1.0888570042	-0.5072093182	-0.8564397767	-0.167633
C	 2.4729189991	-0.2304292221	-0.2040974617	-0.001489
C	 2.6597610774	-1.7591626572	-0.0960095641	-0.243279
C	 1.1476459691	-1.6916563215	 0.1078699728	-0.028246
C	 0.7640173771	-0.6223993044	 1.2242989567	 0.294326
C	 0.0745700838	-0.9704792264	 2.5227123442	-0.513083
C	 2.1052668891	 0.1367456098	 1.2523485211	-0.268811
H	 0.727496656	 2.1801268513	 0.0850619798	 0.119277
H	-0.6220262159	 1.8519211396	-1.0015826269	 0.126756
H	-0.8945175794	 1.9171127996	 0.7463811771	 0.115876
H	-0.8868311763	-0.4236939695	-0.1865965879	 0.071329
H	 3.1556344911	 0.4090973049	-0.7617657894	 0.06965
H	 2.8960126767	-2.2232080173	-1.0557182406	 0.111108
H	 3.3073235585	-2.1464187417	 0.6941330137	 0.091265
H	 0.4621292523	-2.5248459186	-0.0602081693	 0.068124
H	 0.716111855	-1.5863087343	 3.1632298146	 0.115687
H	-0.1850249039	-0.0684040147	 3.089294329	 0.11724
H	-0.8518216468	-1.5280170757	 2.3445793815	 0.113443
H	 2.8217181489	-0.2715781763	 1.971384077	 0.091856
H	 1.9956791335	 1.2039285065	 1.4544689996	 0.094201
