22
gdb 9910	4.54523	0.88473	0.83846	1.7269	78.84	-0.2584	0.0875	0.3459	1485.9921	0.198303	-350.200035	-350.190266	-350.189322	-350.235102	35.268	
C	 0.2062032491	 1.4882199496	-0.2553042716	-0.38145
C	-0.0576047611	 0.0074214543	 0.0301083057	-0.16408
C	 0.7626386013	-0.5333877611	 1.2061546749	-0.160066
C	 0.4981938161	-2.0193628871	 1.4869645327	-0.263239
C	 1.378214236	-2.6019001844	 2.5799836765	 0.429793
C	 1.1920391787	-2.0601538105	 3.9816861078	-0.460977
C	 1.9415836729	-3.9496163826	 2.4044588994	-0.231463
O	 2.7512005759	-2.7906491102	 2.1916439207	-0.277728
H	 1.2614840807	 1.6628981896	-0.4924275345	 0.116088
H	-0.3889957964	 1.8448617329	-1.1018021033	 0.110587
H	-0.043422196	 2.1095138677	 0.6121406528	 0.112558
H	-1.126664376	-0.1423816496	 0.2332123465	 0.091999
H	 0.1649992733	-0.5845265219	-0.8675801821	 0.095744
H	 1.8324945087	-0.4005239845	 1.0014143292	 0.111672
H	 0.5419575256	 0.064195181	 2.1001625404	 0.092747
H	-0.5558673909	-2.1654361475	 1.7603887878	 0.093893
H	 0.6672352025	-2.5912721961	 0.5672143173	 0.098659
H	 0.1655054566	-2.2233436447	 4.3279335805	 0.118141
H	 1.8762410409	-2.5527479778	 4.6767695123	 0.125063
H	 1.3913508873	-0.98478216	 4.0183417979	 0.1292
H	 2.2010876747	-4.5464672164	 3.2787330655	 0.10631
H	 1.7030730301	-4.5249687307	 1.5102066136	 0.106551
