15
gdb 125449	7.06866	0.83092	0.75559	2.5854	74.91	-0.2303	-0.0164	0.2139	1458.4684	0.112701	-450.148323	-450.139597	-450.138653	-450.182433	30.377	
C	-0.0353123294	 1.4414891399	 0.0815304621	-0.494948
C	-0.0424099739	-0.0401044079	-0.0406335972	 0.423193
N	-1.057595649	-0.8287781185	-0.208489659	-0.353108
C	-0.4603047162	-2.0751362349	-0.2438949142	 0.390999
N	-1.199345589	-3.218503815	-0.4331026192	-0.334653
C	-0.7719999552	-4.2995664513	 0.1122466287	 0.127017
N	-1.346215757	-5.4966036728	-0.1344330809	-0.488621
N	 0.8525409183	-2.0495673074	-0.1257895722	-0.210257
O	 1.1340511566	-0.6803220251	 0.0221588019	-0.204566
H	 0.5731398901	 1.8905123832	-0.7093226532	 0.154727
H	-1.0572086919	 1.8122100253	 0.0057427994	 0.16119
H	 0.3914339066	 1.7484363833	 1.0412836085	 0.152999
H	 0.0838389956	-4.3332381335	 0.7938257007	 0.133254
H	-1.1361652206	-6.291422629	 0.4418348596	 0.270343
H	-2.180576475	-5.5215375664	-0.699140965	 0.272433
