17
gdb 64066	2.53323	1.52596	1.2119	5.1823	68.5	-0.2514	-0.0819	0.1696	1071.0508	0.134625	-459.020254	-459.011467	-459.010523	-459.053741	32.145	
C	 0.093211067	 1.4728845454	 0.0659672424	-0.428365
C	-0.0713187405	-0.0621937036	-0.0214972439	 0.132548
C	-1.546743432	-0.4623429553	-0.0593771774	-0.436869
C	 0.7636904351	-0.6323195635	-1.1867692015	-0.124539
O	 2.0768059401	-0.9505502344	-0.6656934032	-0.221092
C	 2.0632142636	-1.0741462749	 0.6819434184	 0.360994
O	 2.9983062445	-1.4258477905	 1.334783935	-0.31173
C	 0.6582505908	-0.658033544	 1.1750950199	 0.249809
O	 0.2653444681	-0.7823888767	 2.3007055149	-0.285667
H	 1.1476855072	 1.766915439	 0.0769540213	 0.138056
H	-0.381952959	 1.9469182219	-0.7986555656	 0.128885
H	-0.3773211389	 1.8541349111	 0.9762107087	 0.144141
H	-2.0527625724	-0.005183332	-0.9157473431	 0.122811
H	-1.6653838925	-1.547749095	-0.1311936612	 0.127123
H	-2.045885995	-0.1309215159	 0.8549052588	 0.146752
H	 0.3270420939	-1.5528252852	-1.5883329605	 0.12635
H	 0.9063294099	 0.0764457834	-2.005051313	 0.130792
