23
gdb 42023	3.08486	1.34583	1.00624	1.3458	85.	-0.2436	0.0874	0.331	1234.2978	0.210246	-388.317979	-388.310125	-388.309181	-388.350346	31.794	
C	-0.0430732544	 1.5600071037	-0.0582924996	-0.20693
C	 1.4455316212	 2.0249715146	-0.0323893669	-0.249288
C	 2.2008742954	 0.8179346543	 0.5374747111	 0.068438
C	 3.7029437431	 0.6673890235	 0.3166860029	-0.248816
C	 4.1281142339	-0.7174032201	 0.8348137589	-0.067202
O	 3.3831898274	-1.7770097144	 0.2550446379	-0.247857
C	 1.9828035925	-1.6780169307	 0.4859778856	-0.120817
C	 1.4510975248	-0.3701350008	-0.0847416003	 0.059185
C	-0.0204910799	 0.008754319	 0.1225997021	-0.251137
H	-0.619722439	 2.034806504	 0.7403945694	 0.099789
H	-0.5244714803	 1.8428332296	-0.9983979379	 0.100366
H	 1.7984755909	 2.2341539283	-1.0495181859	 0.095307
H	 1.5913547858	 2.9388585011	 0.5508687848	 0.091359
H	 2.0150508209	 0.7833900851	 1.6241252143	 0.0619
H	 3.9367384997	 0.7446197284	-0.7529121086	 0.098786
H	 4.2776602911	 1.4439797689	 0.8360861354	 0.0896
H	 5.1755423109	-0.924941875	 0.5971927295	 0.103634
H	 4.021275263	-0.741245768	 1.9339363222	 0.08095
H	 1.5375436646	-2.5561509207	 0.0078854058	 0.102079
H	 1.7662662444	-1.7343008331	 1.5682238994	 0.078757
H	 1.6704239682	-0.3750010968	-1.162837874	 0.072433
H	-0.3353036134	-0.2608533886	 1.1382311471	 0.094691
H	-0.6969098309	-0.5039688423	-0.5669661333	 0.094772
