11
gdb 5183	8.26878	1.27461	1.10841	3.5116	54.18	-0.2518	-0.031	0.2208	961.9458	0.07244	-434.580143	-434.573624	-434.57268	-434.611947	22.209	
O	 0.0917668424	-0.0232073347	 0.0636026448	-0.236401
C	-0.0038637059	 1.1539916872	-0.0412001985	 0.17213
O	 1.1053506672	 1.9645041805	 0.1491727809	-0.21909
C	 0.9193390891	 3.2934586831	 0.1061911829	 0.513152
N	-0.1724467241	 3.9756977161	 0.1951584464	-0.367944
C	 0.2707684069	 5.2956889314	 0.0887233559	-0.102507
C	 1.6131222447	 5.3088001348	-0.0479340957	-0.038499
O	 2.0481797631	 3.9988510077	-0.0408693073	-0.170816
H	-0.9018366515	 1.7359057577	-0.2864010874	 0.152079
H	-0.4169772799	 6.1246795621	 0.127469913	 0.138771
H	 2.3737016781	 6.0621232441	-0.147493625	 0.159124
