22
gdb 100776	3.61366	0.85485	0.8026	2.2526	78.12	-0.2411	0.0523	0.2934	1508.1164	0.192755	-441.445773	-441.43517	-441.434226	-441.481609	38.508	
C	-0.0208986717	 1.5974188312	-0.0321269779	-0.422352
C	 0.0419911449	 0.0625751846	-0.0181206947	 0.001539
C	 0.7138670039	-0.4837001188	-1.2805847193	-0.083836
O	-0.0387821055	-0.0523595239	-2.4049005836	-0.424128
C	 0.7173940078	-0.5130495547	 1.2427761223	 0.08344
O	 2.0851257573	-0.1206491653	 1.360386409	-0.442002
C	-0.0608682603	-0.1960087224	 2.5183722468	 0.005355
C	 0.5633638949	-0.3930894647	 3.8451049262	-0.250382
N	 0.278813311	 0.9699454233	 3.3484729671	-0.319693
H	 0.9798187606	 2.0507371863	-0.066974005	 0.095567
H	-0.5436869719	 1.9359142849	-0.9283183841	 0.14426
H	-0.536661397	 1.9863078802	 0.8494535606	 0.142288
H	-0.9887391002	-0.3161032743	-0.0202312821	 0.091308
H	 1.7534541536	-0.1249157601	-1.3325949772	 0.087018
H	 0.7518247449	-1.58365668	-1.2277295237	 0.086036
H	 0.4229208516	-0.3292859783	-3.201270088	 0.288347
H	 0.7464202741	-1.6065182734	 1.1397939338	 0.089638
H	 2.1620684991	 0.7879249392	 1.0517128845	 0.286086
H	-1.132726112	-0.3641230886	 2.4261534592	 0.088455
H	-0.0387617339	-0.7095365396	 4.6917700027	 0.113527
H	 1.6002832617	-0.7156264319	 3.861910263	 0.12298
H	 1.1580828074	 1.3569022963	 3.0105500907	 0.216549
