21
gdb 60576	2.74771	1.05215	0.9023	1.1845	78.97	-0.2529	0.0672	0.32	1393.0263	0.180187	-424.18829	-424.178205	-424.17726	-424.224212	36.459	
C	 0.2177786725	 1.4883243436	-0.2457988436	-0.417561
C	 0.1117844174	 0.0196488469	 0.0735964569	 0.07705
O	 1.3324103363	-0.7225162042	 0.2255618175	-0.264303
C	 0.4692662921	-0.5977740538	 1.3592094299	 0.051672
C	 0.9972594434	 0.1601217823	 2.5641905772	 0.070074
O	-0.096462154	 0.6227527567	 3.3568375902	-0.4335
C	 1.9716628583	-0.6799505068	 3.357769715	 0.000073
C	 3.4285851148	-0.7108826215	 2.9702157021	-0.253718
C	 2.9999954481	-0.016286696	 4.2371144757	-0.281468
H	 0.9833444662	 1.9844775893	 0.3534091157	 0.12844
H	 0.4740379776	 1.6257501264	-1.3015271907	 0.126521
H	-0.7413565033	 1.9845203621	-0.0641361211	 0.129047
H	-0.6378831766	-0.5107764788	-0.5180694039	 0.086491
H	-0.0491733786	-1.5249334851	 1.6250594703	 0.075042
H	 1.5118764068	 1.0632815798	 2.221980717	 0.084819
H	-0.4203473186	-0.1210420481	 3.8758587568	 0.278842
H	 1.5519782072	-1.6184253659	 3.7190776411	 0.073889
H	 3.9573197405	-1.6538728464	 3.0493598394	 0.113434
H	 3.7329531321	-0.1027784255	 2.1257857171	 0.125145
H	 3.0147761931	 1.0683211282	 4.2577688956	 0.118554
H	 3.2403470647	-0.4808119433	 5.1869592117	 0.111458
