19
gdb 81977	2.46024	1.42252	1.2946	0.6026	81.28	-0.2417	0.0527	0.2944	1096.2382	0.15716	-385.824914	-385.815802	-385.814858	-385.858104	35.353	
C	-0.1027168161	 1.5917968349	-0.0699716929	-0.448316
C	 0.0004664644	 0.0628355273	-0.0511578471	 0.062123
C	-1.2955761103	-0.5401131224	 0.2185180472	 0.279497
C	-2.3647192135	-1.039722491	 0.4538473338	-0.454133
C	 0.7143765317	-0.6275175567	-1.2383325481	-0.069828
C	 2.1494488777	-0.2018552512	-1.3400040866	-0.306913
C	 1.7728960856	-1.230592731	-0.3118680062	-0.04029
C	 1.132317068	-0.5705700639	 0.8973663681	 0.053364
O	 1.9878678499	 0.3137577895	 1.5792152997	-0.421286
H	 0.8790474004	 2.0527136766	-0.1906962399	 0.127516
H	-0.7497781211	 1.9202764216	-0.8886631504	 0.124841
H	-0.5366152494	 1.9585598256	 0.8658022245	 0.114124
H	-3.3109086934	-1.4772054154	 0.6554660819	 0.189863
H	 0.1881700252	-1.105377019	-2.0547141979	 0.09485
H	 2.6781770562	-0.595053697	-2.2023233974	 0.112931
H	 2.4750208065	 0.7862422757	-1.0338682199	 0.124561
H	 2.1944936713	-2.2276029486	-0.3143237031	 0.087528
H	 0.6796695802	-1.2993324207	 1.5781849118	 0.08257
H	 1.5277093166	 0.6413804157	 2.3588037024	 0.286998
