15
gdb 16477	3.03369	2.73568	1.7614	4.2578	64.56	-0.2405	0.0024	0.243	761.9008	0.119055	-362.616243	-362.609534	-362.60859	-362.646982	25.534	
C	 0.0133715277	 1.4868018229	 0.0690516946	-0.513989
C	 0.0009758914	-0.0067290229	-0.0504915764	 0.175851
C	-1.0113141789	-0.9337854005	 0.689587538	-0.122978
C	-1.0228585114	-2.2449442113	-0.0901648426	-0.197389
N	 0.4869394939	-2.1040895525	-0.2496258067	-0.222871
C	 0.4447259015	-1.1048107939	 0.9172648045	-0.066526
C	 0.5366415431	-0.8925780437	-1.1248331175	 0.383224
O	 0.9937430851	-0.7614614321	-2.2156110132	-0.3147
H	 0.9958275914	 1.8902284618	-0.1938363972	 0.142678
H	-0.725363922	 1.9389830615	-0.600362709	 0.140289
H	-0.2224396968	 1.8043254668	 1.0894926053	 0.127263
H	-1.7573581761	-0.4970768585	 1.343919513	 0.104373
H	-1.2506154251	-3.1119740955	 0.5344183045	 0.122497
H	-1.5685590052	-2.3079694082	-1.0378716488	 0.120225
H	 1.1315367414	-1.0777153537	 1.7494544714	 0.122051
