17
gdb 15817	6.57605	0.96003	0.90078	3.2481	67.31	-0.2572	-0.0241	0.2331	1298.1206	0.140702	-400.969862	-400.961153	-400.960208	-401.003996	29.833	
C	 0.1641889505	 1.407067583	-0.1632420696	-0.22765
O	-0.1290044429	 0.0477165196	 0.0678837527	-0.211186
C	 0.7035962208	-0.5312339139	 1.0209972409	-0.159259
C	 0.3637317611	-2.0006956994	 1.2132765312	 0.358123
O	-0.4632001471	-2.5845206968	 0.5507078683	-0.314008
C	 1.137697832	-2.6985893383	 2.2898105628	-0.108153
C	 0.3404258842	-3.5590486679	 3.2235044896	-0.218026
N	 1.2033399757	-4.1660049404	 2.2208295587	-0.30346
H	 1.1914754455	 1.5455700855	-0.5354656299	 0.107668
H	-0.5380204383	 1.7634370833	-0.9197400951	 0.136978
H	 0.0442872889	 2.0122953145	 0.7491704346	 0.106688
H	 1.7711953169	-0.4694297256	 0.7333878488	 0.113244
H	 0.6281459931	-0.0276190721	 2.0039706865	 0.110354
H	 2.032222965	-2.205073806	 2.66011477	 0.097119
H	 0.6731429182	-3.6600902184	 4.2525098196	 0.126907
H	-0.7345555965	-3.5804611588	 3.0677157851	 0.135144
H	 0.6256851928	-4.4429039682	 1.4252865758	 0.249518
