17
gdb 39725	3.37821	1.69711	1.65442	1.8641	69.8	-0.2387	0.0867	0.3254	887.8062	0.138133	-421.789712	-421.783453	-421.782509	-421.820143	26.406	
C	-0.0053732326	 1.5035407624	 0.0071929742	-0.33399
C	 1.3087099936	 0.7456787604	-0.0103994589	-0.333989
C	 0.0081046047	 0.0078609153	 0.0349949261	 0.469744
C	-0.4878046745	-0.8778478166	 1.1455939682	-0.303945
C	-1.7379841574	-1.5219011754	 0.545471158	 0.043015
O	-1.898828549	-1.0243403	-0.7711737151	-0.246255
C	-0.5172656372	-0.8769403446	-1.0936174488	 0.018843
O	 0.0532810403	-2.1501541487	-0.7972804687	-0.246255
C	-0.4314829379	-2.2754434495	 0.5279741427	 0.043029
H	-0.2818545011	 2.0306298812	 0.9141286222	 0.116168
H	-0.3241885645	 1.9968192634	-0.9055916367	 0.117222
H	 1.8768757526	 0.7274047409	-0.9350592985	 0.117221
H	 1.9215035677	 0.7599039778	 0.8846304872	 0.116167
H	-0.3572218486	-0.6759163415	 2.1990255453	 0.097143
H	-2.6502514429	-1.7877554926	 1.0576647432	 0.114266
H	-0.3731114013	-0.6028365582	-2.1349909573	 0.097349
H	-0.1946372418	-3.2040702242	 1.0247732969	 0.114266
