15
gdb 20364	6.15801	1.45961	1.30086	2.251	66.77	-0.2395	0.0098	0.2492	932.5742	0.122061	-358.858735	-358.852111	-358.851167	-358.890354	24.595	
C	-0.1213217027	 1.4381042452	-0.0945864333	-0.259329
C	 1.2723469726	 0.9236928953	 0.1040988189	-0.259362
C	 0.1113536686	-0.0509421539	 0.0715969538	-0.086341
C	-0.3173403755	-0.736600504	 1.3030101195	 0.358537
N	-0.2799991645	-0.1743936623	 2.5057065881	-0.290375
N	-0.7588139724	-1.1628671635	 3.3006694103	-0.174694
C	-1.057098763	-2.2497019313	 2.5654635289	 0.013613
N	-0.7919761978	-2.0218939894	 1.2943860468	-0.312866
H	-0.5942076241	 1.9492800977	 0.7360556265	 0.129942
H	-0.4111133558	 1.7935833664	-1.0771936033	 0.112864
H	 1.9528115132	 0.9210730349	-0.7401892167	 0.112852
H	 1.7387099905	 1.0882076011	 1.0686348534	 0.129987
H	 0.0072338708	-0.6729593037	-0.8090147855	 0.100765
H	-0.8442944156	-1.0136296928	 4.2922582923	 0.280425
H	-1.4543910744	-3.1603580899	 2.9882309303	 0.143981
