17
gdb 128524	1.9462	1.85617	1.00857	3.2289	72.49	-0.2066	0.0168	0.2234	1168.1832	0.134633	-455.130438	-455.120996	-455.120052	-455.164977	33.474	
C	-0.0796372671	 1.47043815	 0.0686125505	-0.253835
O	 0.0557647475	 0.0544230149	-0.0451747738	-0.280941
C	 0.6548990771	-0.5447725876	 1.0284046078	 0.025641
C	 1.9655836982	-0.9286896499	 1.1202935757	 0.40583
N	 3.0380528754	-0.7428888985	 0.2801386164	-0.601197
O	 2.1771381785	-1.5554879402	 2.2790977874	-0.220688
N	 0.9564692067	-1.6058961812	 3.0067399902	-0.232472
C	 0.0736118899	-1.0024353123	 2.2447055158	 0.32486
C	-1.3480790671	-0.8820681153	 2.6876458933	-0.497582
H	 0.8972587696	 1.955182813	 0.1895698609	 0.121994
H	-0.5472255032	 1.8160329563	-0.8561378379	 0.129896
H	-0.7165395654	 1.744860877	 0.9187323286	 0.120288
H	 2.7599693377	-0.6015783855	-0.6815225581	 0.266942
H	 3.7587671947	-1.4458518203	 0.3733262127	 0.266327
H	-1.6156556779	 0.161852552	 2.8837010141	 0.134427
H	-2.0255718036	-1.2530953353	 1.9123782559	 0.141178
H	-1.504291961	-1.4560005671	 3.6029866204	 0.149332
