15
gdb 47154	3.32632	1.13479	0.85502	4.0955	71.9	-0.2608	-0.0378	0.223	1257.4622	0.113564	-416.87528	-416.867043	-416.866099	-416.909181	29.304	
O	-0.2007896347	 0.0657112706	-0.8708900753	-0.387157
C	-0.1270461023	 1.180507236	-0.3951715511	 0.376924
N	-1.0857673189	 2.1632406911	-0.4054012134	-0.343056
C	-0.6628316267	 3.3753234709	 0.2589557436	-0.208952
C	 0.7324841719	 3.0253451455	 0.7070325889	-0.18857
C	 1.0348457277	 1.780339003	 0.3359287163	 0.202077
C	 2.2767303824	 0.9625275026	 0.5325862698	-0.444296
C	 3.3244326729	 1.6722025436	 1.261092528	 0.268711
N	 4.1378163666	 2.2542217671	 1.8390970865	-0.310799
H	-1.9846571166	 2.0293871671	-0.8356872061	 0.260571
H	-0.6624091301	 4.2429172828	-0.4164619938	 0.135485
H	-1.3071722907	 3.6297152156	 1.1127946339	 0.135521
H	 1.3626424117	 3.7172511091	 1.2501983711	 0.143033
H	 2.0269370322	 0.0346826794	 1.0622593041	 0.180282
H	 2.6634645047	 0.6394386555	-0.4420494924	 0.180227
