18
gdb 72614	2.17974	1.94141	1.61935	2.3903	70.79	-0.2373	0.0684	0.3057	943.3163	0.1473	-439.022624	-439.014677	-439.013733	-439.054546	31.494	
C	-0.0531213567	 1.5339082463	-0.064271057	-0.482037
C	-0.0056209063	 0.0374773755	 0.0479388356	 0.389145
O	 0.8259859873	-0.6001989285	-0.9507136816	-0.335308
C	 1.5911830913	-1.3251947564	 0.0369576797	-0.129564
C	 0.7120759238	-0.8243074883	 1.1845215752	 0.33069
O	 1.3866387476	-0.3500369548	 2.296745182	-0.474564
C	-0.585672786	-1.6004945104	 1.3546234144	-0.146445
N	-1.5859772073	-0.5701084456	 1.7422844262	-0.366921
C	-1.2648950245	-0.7852904515	 0.3075829288	-0.110146
H	 0.9448791985	 1.9631161452	 0.0650213344	 0.127859
H	-0.4246678919	 1.8295425769	-1.0518862861	 0.125476
H	-0.7177513464	 1.947592573	 0.6989480541	 0.132847
H	 1.6066583424	-2.4050152706	-0.1505330055	 0.1005
H	 2.619126597	-0.9496478982	 0.1064854299	 0.11299
H	 0.7139984167	-0.0304639152	 2.9114960995	 0.293363
H	-0.7209591013	-2.6419497657	 1.6235967443	 0.096228
H	-2.4631838895	-1.0513223917	 1.9350763358	 0.235317
H	-2.0203193948	-1.0936149502	-0.4044489599	 0.100568
