20
gdb 121424	3.89616	0.75274	0.67233	1.9225	79.88	-0.2327	-0.0191	0.2136	1709.6505	0.170189	-436.519946	-436.509339	-436.508395	-436.556249	38.12	
C	-0.2771211858	 1.3846529158	 0.2773539523	-0.3764
C	-0.3184449383	-0.1238450964	 0.0224415177	-0.161479
C	 0.7523245314	-0.5859858392	-0.9808409129	-0.162288
N	 0.7616608853	-2.029719771	-1.1445230762	-0.309
C	 0.0418374894	-2.5611881386	-2.0593987864	 0.279157
N	-0.7611548922	-1.9792895675	-2.9955804616	-0.551282
C	 0.0606389514	-4.0806917378	-2.2138118769	 0.392065
N	 0.9154656754	-4.6917891767	-1.3726166382	-0.525788
O	-0.652801193	-4.6368275811	-3.0349057718	-0.386432
H	 0.6943380284	 1.6909248904	 0.6807346103	 0.118171
H	-0.4429010652	 1.9514526721	-0.6459093623	 0.111556
H	-1.0455532703	 1.6873696864	 0.9950653489	 0.115572
H	-0.170244467	-0.6717087241	 0.9597957105	 0.109477
H	-1.310909876	-0.4150267894	-0.345325024	 0.091333
H	 0.6151433689	-0.0549192144	-1.9384078329	 0.081311
H	 1.737101572	-0.2850175032	-0.603102653	 0.101595
H	-1.104366822	-1.0444445565	-2.8701590149	 0.260326
H	-1.3167311663	-2.6309140622	-3.5315209848	 0.274611
H	 1.4250786784	-4.1121172941	-0.7228681231	 0.274178
H	 0.9845343256	-5.6942100224	-1.3677436705	 0.263316
