14
gdb 42625	2.82179	1.93469	1.39465	5.9937	65.35	-0.229	-0.0773	0.1517	890.7241	0.102296	-436.656637	-436.650112	-436.649168	-436.687627	25.699	
O	-0.0057593434	 0.0060342146	-0.1976220645	-0.300739
C	-0.0362255748	 1.1908404152	-0.0014620892	 0.332516
C	-1.2264636881	 2.082843442	 0.1203089308	-0.173937
C	-1.2576687994	 3.1399846635	 1.2184231544	-0.01385
N	 0.0780110106	 3.2350782749	 1.8432148068	-0.335235
C	 0.6472702373	 3.484767987	 0.4562769094	-0.165672
C	-0.7859296974	 3.5350170667	-0.1439265754	-0.131594
C	 1.2150911826	 2.1281812457	 0.0551307972	 0.378357
O	 2.3452811336	 1.8138709901	-0.1841185847	-0.292692
H	-2.1840651062	 1.7363104962	-0.2463840499	 0.123308
H	-2.1754791522	 3.3434194102	 1.7563202773	 0.118783
H	 0.1426431195	 4.1003984201	 2.3729821544	 0.236898
H	 1.3190626001	 4.3329639851	 0.3541501106	 0.106333
H	-1.1817489023	 4.1621612588	-0.931345957	 0.117524
