20
gdb 68306	3.09852	1.31224	1.1524	1.9964	79.65	-0.2278	0.0757	0.3035	1151.9601	0.171325	-403.043537	-403.035377	-403.034433	-403.076458	31.625	
C	 0.0882572514	 1.4830570835	 0.1771425504	-0.522615
C	 0.0418867776	-0.0206360972	 0.0714580119	 0.281138
C	 0.4914606653	-0.939402501	-1.0918579978	-0.198667
N	-0.0306433701	-1.9676513439	-0.071953209	-0.168865
C	 0.7232293288	-1.0943309265	 0.9580822719	-0.221957
C	-1.1929759965	-0.9735010922	 0.1028705023	-0.006933
C	-2.1539864843	-1.1369588826	 1.2512296278	 0.031592
C	-2.4846481449	-2.4580850187	 1.8050844812	-0.177282
O	-1.7176362152	-1.5127267624	 2.5588463454	-0.229197
H	 1.1169439565	 1.8497353761	 0.0908972432	 0.122765
H	-0.5027528415	 1.9538081515	-0.616399493	 0.118418
H	-0.3078448727	 1.8227094946	 1.140164937	 0.127386
H	-0.0779063164	-0.9164118335	-2.0264594334	 0.094219
H	 1.5645933529	-1.0329683759	-1.279604015	 0.098172
H	 1.8101315122	-1.1897996074	 0.8743167823	 0.090826
H	 0.3814315127	-1.2289417127	 1.9806608375	 0.140436
H	-1.8157542299	-0.9305497402	-0.8021581925	 0.071572
H	-2.9393707633	-0.3775683407	 1.2594010091	 0.095174
H	-3.4857836728	-2.6526173844	 2.1857332352	 0.114567
H	-1.9286148197	-3.3228504664	 1.4504163954	 0.139252
