19
gdb 37047	2.7168	1.78641	1.49097	1.7218	73.5	-0.2218	0.0726	0.2944	960.7425	0.160838	-422.976599	-422.96936	-422.968416	-423.007985	29.599	
C	 0.0038350957	 1.5124059959	-0.148022919	-0.399353
C	 1.313408657	 0.7763026316	 0.0250416963	 0.374838
C	 2.2313409014	 0.838082238	 1.2157430636	-0.308949
C	 1.8107405517	-0.2935812073	 2.185265251	-0.220001
C	 0.2896728695	-0.3411183335	 2.3914500752	-0.082211
O	-0.4540954473	-0.6386576296	 1.1974994395	-0.298349
C	 0.030460951	 0.0135620396	 0.0789166034	 0.303574
C	 0.5342598813	-0.7024358954	-1.1686143993	-0.143965
O	 1.7168694322	 0.1548349859	-1.2086802451	-0.333112
H	-0.3163959483	 2.0995085324	 0.7071135473	 0.117952
H	-0.2601166143	 1.9235758012	-1.1184185402	 0.113136
H	 3.2684087387	 0.7123465262	 0.8923308372	 0.123712
H	 2.1623184972	 1.8109679024	 1.7146385789	 0.10793
H	 2.1400558033	-1.2605035446	 1.7867866626	 0.11531
H	 2.2875947515	-0.164892328	 3.1629326856	 0.1026
H	 0.0202070083	-1.1305429123	 3.0975745274	 0.11537
H	-0.0590571779	 0.6146770307	 2.8154471485	 0.094626
H	 0.8116548583	-1.7439454867	-0.9728642574	 0.111415
H	-0.0604680794	-0.6339465167	-2.0862697953	 0.105476
