20
gdb 13729	5.81811	0.80288	0.76407	1.0329	73.13	-0.253	0.0934	0.3465	1546.1085	0.174747	-386.112629	-386.103031	-386.102087	-386.147921	33.211	
C	-0.060356319	 1.3520691575	-0.3358669195	-0.228847
O	-0.0537868319	 0.0413984085	 0.1749674181	-0.232318
C	-1.2742090399	-0.6341340026	-0.0334788273	-0.041514
C	-1.1435942444	-2.0452917064	 0.5321298456	-0.244638
C	-2.4292613022	-2.8211772321	 0.3887812943	 0.060381
O	-2.7920987108	-3.2615044634	-0.9287995944	-0.265197
C	-2.525511	-4.2556013686	 0.0671036695	 0.077111
C	-1.3545784902	-5.1764959863	-0.1609848477	-0.418741
H	 0.9204032455	 1.7888695607	-0.1318361339	 0.125644
H	-0.2371445431	 1.3670921013	-1.4231882783	 0.104683
H	-0.8328825405	 1.9749656777	 0.1433617133	 0.102055
H	-2.1021566677	-0.0952695808	 0.4610032735	 0.081205
H	-1.515984544	-0.6826487472	-1.1078187587	 0.104124
H	-0.3200776297	-2.5501816604	 0.0214190055	 0.113248
H	-0.8786875276	-1.9773040728	 1.5944779867	 0.109449
H	-3.2697207813	-2.3924514457	 0.9416910345	 0.084882
H	-3.4269917023	-4.7643221761	 0.4175195362	 0.085523
H	-0.4727944669	-4.6381081422	-0.512827639	 0.130918
H	-1.0983366646	-5.7036502244	 0.764565606	 0.122169
H	-1.6117777594	-5.9295951966	-0.9132716843	 0.129864
