25
gdb 107054	3.61057	1.03341	0.92352	0.2198	92.53	-0.2521	0.0859	0.338	1424.8617	0.229982	-352.375117	-352.365623	-352.364678	-352.408985	37.383	
C	 0.090711963	 1.4931483649	 0.3253383366	-0.374613
C	-0.0345688996	 0.0442147518	-0.1639583764	-0.276882
C	-1.4478945121	-0.4967526405	-0.1093029941	 0.385818
C	-1.9786727452	-1.0587267554	 1.191248965	-0.337425
C	-1.7479956686	-1.9757806741	 0.009528731	-0.089789
C	-2.943880369	-2.3211438804	-0.8721443395	 0.035483
C	-3.8786932199	-3.3929163475	-0.3077081554	-0.396321
C	-3.6295923407	-0.9541255979	-1.114012245	-0.239583
C	-2.4972034205	 0.0934759027	-1.0529101869	-0.275189
H	 1.1299932651	 1.8345570957	 0.2867348607	 0.107541
H	-0.5052351451	 2.175705998	-0.2893638657	 0.116459
H	-0.2577426635	 1.5887632884	 1.3592070344	 0.115962
H	 0.3394910818	-0.0249774205	-1.195141709	 0.089631
H	 0.6183535341	-0.5980566964	 0.4404982818	 0.089735
H	-1.2751807582	-1.1360730211	 2.0141557731	 0.102182
H	-2.9923155122	-0.8320436568	 1.5069730173	 0.103031
H	-0.9394133002	-2.6972895991	 0.0820153965	 0.07122
H	-2.5451776438	-2.6823004324	-1.8310916604	 0.066746
H	-4.2746085845	-3.0907871844	 0.6683030252	 0.112271
H	-4.7294636991	-3.5696803815	-0.9751033665	 0.107966
H	-3.3574352929	-4.3468158242	-0.1740823501	 0.108802
H	-4.1776672127	-0.9264610983	-2.0601003516	 0.093173
H	-4.3661764355	-0.766354703	-0.3242920648	 0.098495
H	-2.8607590241	 1.0784359947	-0.7394568425	 0.093184
H	-2.0424353267	 0.2222423377	-2.0442485336	 0.092101
