15
gdb 25845	3.90175	1.23469	0.94701	1.7717	75.26	-0.2527	-0.0478	0.2049	1162.8187	0.115753	-416.901648	-416.894223	-416.893279	-416.933921	28.121	
N	-0.0129535576	 1.3501485738	 0.0638164017	-0.540221
C	 0.032454864	-0.0043519474	-0.1376253833	 0.338401
O	 1.0725658464	-0.5893236745	-0.3793064653	-0.354787
C	-1.2801999022	-0.7297564501	-0.071144518	 0.134895
C	-2.5296972044	-0.1082356411	-0.1460620439	-0.068967
N	-3.693367953	-0.7587329014	-0.0899915573	-0.269431
C	-3.6436824313	-2.0868503878	 0.0411677392	 0.013172
C	-2.4551639121	-2.8126737011	 0.1045158491	-0.125862
C	-1.25477056	-2.1212870216	 0.0422594791	-0.122125
H	 0.8798019448	 1.8133768146	 0.1317944136	 0.263796
H	-0.7876213981	 1.7764693418	 0.5428198689	 0.261646
H	-2.6048368437	 0.9681051793	-0.286034202	 0.10466
H	-4.6025641064	-2.5972302805	 0.0926873088	 0.116127
H	-2.4777360231	-3.892562091	 0.198735162	 0.109945
H	-0.2939572633	-2.6218024031	 0.0758667575	 0.138752
