20
gdb 57972	3.66935	0.95049	0.8092	2.3	78.26	-0.2356	0.0618	0.2974	1476.1926	0.169066	-440.306344	-440.296055	-440.295111	-440.34316	35.529	
C	-0.2613296574	 1.3121795856	 0.0650563924	-0.338791
N	 0.0831982179	-0.0924303706	-0.0463356847	-0.146316
C	 0.5200504079	-0.7519278516	 1.1693730254	-0.338705
C	 0.0233579601	-0.6856726257	-1.274587633	 0.527074
O	-0.3215918562	-0.1362315707	-2.2991898814	-0.425012
O	 0.4148962645	-1.9920139097	-1.2186662241	-0.278114
C	 0.3275101216	-2.6926605969	-2.4423524448	 0.166904
C	 0.5206820367	-4.1691024839	-2.3397324947	-0.302888
C	-0.8487209601	-3.5950757321	-2.6569626821	-0.279135
H	 0.5992705313	 1.8980214829	 0.4141651768	 0.119097
H	-0.5705968467	 1.6736622527	-0.9138379318	 0.169117
H	-1.0807264298	 1.4522126958	 0.7817360345	 0.119334
H	-0.25198758	-0.6681934393	 1.9453835993	 0.121289
H	 0.7150214516	-1.8033595628	 0.9776307228	 0.159543
H	 1.4362961797	-0.2860146049	 1.5570364358	 0.121591
H	 0.7319788849	-2.1407519311	-3.2812270711	 0.120525
H	 1.0789477254	-4.6692953662	-3.1228266319	 0.119252
H	 0.6673238406	-4.5775095258	-1.3463323565	 0.122579
H	-1.5911951634	-3.6289080197	-1.8679437405	 0.121081
H	-1.2448479387	-3.691722666	-3.6613581503	 0.121576
