23
gdb 64481	2.40754	1.46296	1.19354	2.1264	80.95	-0.2526	0.0697	0.3223	1171.3694	0.206477	-425.431101	-425.421914	-425.42097	-425.464303	36.011	
C	 0.0831171957	 1.533363748	 0.049587557	-0.412165
C	-0.0862130958	 0.0029473191	 0.0011762892	 0.241669
C	-1.5803321355	-0.3572212047	 0.0500118537	-0.417191
C	 0.5898072279	-0.5143727922	-1.2928370461	-0.25717
C	 0.2932501668	-1.9610630843	-1.7141560621	-0.077369
O	 0.2524646903	-2.939626255	-0.6785140273	-0.237742
C	 1.0951139093	-2.7675867092	 0.4246441195	 0.014732
O	 0.5334925433	-1.9668041434	 1.4287647205	-0.235809
C	 0.6480095179	-0.568288649	 1.2355917434	-0.086233
H	 1.1384279289	 1.823891531	-0.0078487638	 0.110064
H	-0.438256505	 2.0076943102	-0.788246296	 0.114028
H	-0.3291266117	 1.9487113594	 0.9755100191	 0.112745
H	-2.1023183074	 0.019219485	-0.8370100946	 0.103354
H	-1.7239239486	-1.4377906875	 0.1078344683	 0.145003
H	-2.0552549578	 0.093629061	 0.9282293165	 0.106935
H	 0.2843861321	 0.1166324759	-2.1377600608	 0.097533
H	 1.6728417476	-0.3677510342	-1.1948101236	 0.097953
H	-0.6940876512	-2.0166770841	-2.1833440777	 0.11376
H	 1.0293506131	-2.2617363405	-2.475511613	 0.093494
H	 1.2147838573	-3.7597815569	 0.867105459	 0.112937
H	 2.0810317159	-2.3729763593	 0.1229236084	 0.074757
H	 1.7132741791	-0.2854987572	 1.1783447704	 0.081517
H	 0.2358835679	-0.1212833122	 2.1463529201	 0.103199
