20
gdb 107219	3.83168	1.1949	1.08581	2.3184	77.02	-0.2327	0.0721	0.3048	1169.6226	0.173149	-403.112113	-403.104194	-403.10325	-403.14466	31.677	
O	 0.1225506071	 1.2912819669	-0.4405948598	-0.423266
C	 0.0488264365	 0.0424331816	 0.2312678458	-0.126541
C	-1.3545131343	-0.5118712649	 0.2122886775	 0.302417
C	-2.435696057	 0.1273873069	 1.0935435609	-0.311637
C	-3.4229553674	-0.9845218098	 1.4679184324	-0.029767
C	-4.2647547401	-1.6427230372	 0.4067703656	-0.313654
C	-2.9542074483	-2.2722956705	 0.8134659933	-0.03059
C	-1.6960209958	-1.9547864566	 0.0265580381	-0.100061
N	-1.7507836391	-1.0274391331	-1.1151894379	-0.38157
H	-0.1898854586	 1.1238791276	-1.3377288285	 0.287779
H	 0.7313513859	-0.6933573524	-0.2194350344	 0.089626
H	 0.380870264	 0.2279873031	 1.2584319551	 0.1021
H	-1.9667404091	 0.5183891258	 2.0028033381	 0.109622
H	-2.9149036171	 0.9817185568	 0.6013792511	 0.110675
H	-3.8133067734	-0.9839266537	 2.4796734578	 0.088832
H	-5.1686967895	-2.1435804481	 0.7380737151	 0.115771
H	-4.3747544746	-1.1798147782	-0.5694284207	 0.10921
H	-2.9778046057	-3.22213558	 1.3345825937	 0.087316
H	-0.9449394107	-2.7346043641	-0.0587172148	 0.089751
H	-2.7078771728	-0.78159192	-1.3486423385	 0.223987
