16
gdb 24029	4.47698	1.06921	0.86762	1.6191	83.13	-0.2524	-0.025	0.2274	1275.3438	0.125442	-363.640972	-363.633186	-363.632241	-363.674308	29.368	
C	-0.746124302	-0.4429634448	-1.2426734894	-0.447952
C	-0.237954843	 0.1930029621	-0.3583818566	 0.307737
C	 0.3713534204	 0.9608610241	 0.719020359	-0.447241
C	 1.6183366447	 1.7553068034	 0.3512611131	 0.322201
N	 2.148194899	 2.447843007	 1.3675039401	-0.307728
C	 3.2425740989	 3.1701641866	 1.1276650883	-0.004945
C	 3.8626789047	 3.2436379687	-0.1173206529	-0.123118
C	 3.3063469934	 2.521951912	-1.1664406591	-0.080424
C	 2.1638730952	 1.7633161696	-0.931253652	-0.162056
H	-1.2020727009	-1.008010223	-2.017463304	 0.197679
H	-0.3621109935	 1.6625554858	 1.1361321962	 0.155673
H	 0.6324106703	 0.2930215687	 1.549784147	 0.155663
H	 3.6458941193	 3.719738694	 1.975418557	 0.108059
H	 4.7520315259	 3.8484752984	-0.2531257952	 0.101258
H	 3.7529002622	 2.5469408855	-2.1552709868	 0.108281
H	 1.6978485354	 1.186015762	-1.7201575948	 0.116913
