13
gdb 125458	3.09313	1.49683	1.01494	2.2769	64.01	-0.2664	-0.0996	0.1668	1073.9102	0.088175	-489.892754	-489.885062	-489.884117	-489.925221	28.144	
C	 0.0674313655	 1.444116399	-0.0085483221	-0.470079
C	 0.0311351138	-0.0459368957	-0.0288988214	 0.201694
N	 0.0088129191	-0.6998011469	-1.1378944951	-0.297162
C	-0.023179526	-2.0732850842	-1.0296121629	 0.480704
O	-0.0453865789	-2.6953350504	-2.2145691316	-0.38124
N	-0.0343027661	-2.8014730901	 0.0377921906	-0.197504
O	-0.0103655143	-2.0951371614	 1.2481550675	-0.241858
C	 0.0224549452	-0.734573093	 1.2929369991	 0.42001
O	 0.042996319	-0.1681344053	 2.3537101844	-0.318852
H	 0.9573742532	 1.7873719811	 0.5298679365	 0.16591
H	 0.0645989387	 1.8354857797	-1.0254671318	 0.15244
H	-0.7902620914	 1.8301343478	 0.5524721764	 0.165936
H	-0.0671976978	-3.6480910204	-2.0441003796	 0.320001
