22
gdb 86401	2.63208	1.3004	0.98131	1.625	81.8	-0.2374	0.0674	0.3048	1279.849	0.195288	-404.34018	-404.331188	-404.330244	-404.373999	35.206	
C	-0.0312375714	 1.5695215162	-0.0077836706	-0.403603
C	 0.0547005637	 0.045458545	-0.027797631	 0.032326
C	 0.9441876565	-0.5345362536	-1.1420255509	-0.253381
C	 1.1528499344	-1.9984927793	-0.7297365522	 0.056258
O	 2.2893047137	-2.633527354	-1.295145985	-0.435374
C	 1.1653889499	-1.9520429426	 0.8201223439	 0.32114
C	 0.9820043583	-3.1989399608	 1.5977619623	-0.296223
N	 2.3011108781	-2.5408159771	 1.5420364919	-0.365078
C	 0.6573603681	-0.5774191639	 1.251710504	-0.286351
H	 0.962656448	 2.0148183209	 0.1181077713	 0.113372
H	-0.4572179354	 1.9591620566	-0.9385280004	 0.112378
H	-0.659237783	 1.9198689446	 0.8181305649	 0.115231
H	-0.9582828206	-0.3590506996	-0.1644933375	 0.075684
H	 0.5232423897	-0.4284466683	-2.1455117694	 0.102008
H	 1.9163713976	-0.0172200453	-1.1353818308	 0.085391
H	 0.3047896237	-2.6036209637	-1.0700437339	 0.095213
H	 3.0292734418	-2.0188700646	-1.2330421055	 0.281291
H	 0.4941925582	-3.1682719171	 2.5692205403	 0.110343
H	 0.8450734873	-4.1286989694	 1.0488883479	 0.109928
H	 2.8737218363	-3.0397117933	 0.8606604033	 0.225844
H	 1.5056739119	 0.0259707106	 1.5982297562	 0.105232
H	-0.0606398569	-0.6257818513	 2.0755496913	 0.098372
