18
gdb 85505	2.55759	1.32868	1.01541	2.3331	73.95	-0.2596	-0.0373	0.2223	1191.5048	0.146976	-439.120533	-439.111739	-439.110795	-439.154745	31.976	
C	-0.5186764036	 1.488490607	 0.1409449343	-0.411603
C	 0.147392343	 0.1312781512	-0.0001760678	 0.109886
O	 1.1800870691	 0.2069759257	-1.0044268213	-0.246721
C	 2.197947363	-0.6621612925	-0.7246449368	 0.414554
N	 3.2076710481	-0.8532760158	-1.4554076078	-0.538487
C	 1.9247455296	-1.3435395533	 0.6010165405	-0.331771
C	 0.8564017192	-0.4473295912	 1.2558564112	-0.126733
C	 1.4998155348	 0.6312136463	 2.1065036615	 0.167728
O	 1.1226221225	 0.9368931318	 3.2079010267	-0.254658
H	 0.20226512	 2.2606892708	 0.4225689369	 0.136552
H	-0.9817829332	 1.7812002215	-0.8046610444	 0.135506
H	-1.296040035	 1.4457384563	 0.9095255607	 0.137222
H	-0.593565872	-0.6064494135	-0.3382007049	 0.097609
H	 3.1503513279	-0.2890850014	-2.3050437705	 0.225214
H	 1.5263769711	-2.3470647314	 0.4194740432	 0.142687
H	 2.8441323688	-1.4568527628	 1.1783011178	 0.14608
H	 0.1491135803	-0.9882717013	 1.8872416335	 0.103797
H	 2.3783285663	 1.1342586127	 1.6407137273	 0.093136
