19
gdb 90841	3.05595	1.86192	1.43203	1.3508	79.19	-0.2585	0.0769	0.3354	944.7448	0.16131	-385.804118	-385.797341	-385.796397	-385.834932	28.59	
O	 0.0474126796	 1.3832807748	-0.081443544	-0.440566
C	-0.0397429689	-0.0297219513	 0.0201919287	-0.034678
C	 0.4132193591	-0.600168652	 1.426927077	-0.264151
C	-0.9118924284	-1.17819881	 1.9951768135	-0.080491
C	-1.5891741506	-1.8608420679	 0.7874321059	-0.052676
C	-3.0058471001	-1.2224869584	 0.9288951527	-0.09337
C	-2.9087213367	-0.5480069254	-0.4781242487	-0.358432
C	-1.4845480021	-0.4567495853	 0.1113794077	 0.373055
C	-2.0171147771	-0.193764058	 1.560411708	-0.039517
H	 0.9785268378	 1.6255369184	-0.0746351325	 0.282162
H	 0.5040138666	-0.5103601237	-0.80554727	 0.064077
H	 1.1868360825	-1.369702391	 1.3302104823	 0.093697
H	 0.8146405044	 0.2136740929	 2.040054172	 0.095729
H	-0.8744400877	-1.6284717732	 2.9896700775	 0.05523
H	-1.3390186146	-2.8055206363	 0.2988540659	 0.063372
H	-3.8879517321	-1.6656203566	 1.392656169	 0.068485
H	-3.046170877	-1.1991120509	-1.3475758655	 0.092198
H	-3.4478123424	 0.3944626527	-0.6118403922	 0.101551
H	-2.2569366722	 0.7942857713	 1.9551392629	 0.074326
