16
gdb 45713	3.33201	1.50479	1.0938	3.337	71.08	-0.2189	-0.0147	0.2042	1047.926	0.126761	-437.917566	-437.910339	-437.909395	-437.949474	27.532	
O	-0.1107976632	-0.0418953363	-0.1729788731	-0.364167
C	-0.0340865656	 1.1560783693	-0.0421040568	 0.399857
N	-1.1076767298	 2.0396408796	 0.0310326665	-0.324736
C	-0.6849124234	 3.3543087745	 0.3066399589	-0.142765
C	 0.6468619425	 3.4341870156	 0.2507223772	 0.186237
C	 1.7294719668	 4.287390268	 0.8304448597	-0.154262
O	 2.7384785364	 3.3399339538	 1.2303480009	-0.270651
C	 2.2226411298	 2.0063010798	 1.1546058665	-0.083272
C	 1.2076728425	 2.0588750719	 0.0006338454	-0.214866
H	-2.0630583131	 1.7213662899	 0.0420736292	 0.261788
H	-1.4178545759	 4.1016656682	 0.5771387518	 0.133682
H	 2.1925067111	 4.9770376243	 0.112902346	 0.113975
H	 1.3881690273	 4.8756865058	 1.6933981313	 0.109105
H	 3.067491966	 1.3371178451	 0.9795856473	 0.123653
H	 1.7282966677	 1.7158354901	 2.0936143637	 0.102367
H	 1.7293987909	 1.9640047105	-0.9597295246	 0.124053
