17
gdb 35115	3.16206	1.41341	1.09887	5.094	77.52	-0.2551	0.0052	0.2603	1093.5241	0.13876	-380.871926	-380.864443	-380.863499	-380.904117	28.887	
N	-0.5476632213	-0.8148450315	-1.215505281	-0.32803
C	-0.2971163888	 0.1378089761	-0.611574563	 0.275877
C	 0.0150349022	 1.3648094491	 0.1380415268	-0.193143
C	-0.5581082642	 1.311696673	 1.5403294961	-0.047931
C	 0.0866816119	 1.7390173968	 2.6211672722	-0.056338
C	 1.4752882061	 2.3126730983	 2.6296583168	-0.269357
C	 2.220122638	 2.1108324512	 1.3269487658	-0.035622
N	 2.3564419364	 0.7186915307	 0.8727194503	-0.314798
C	 1.5158384564	 1.6413020706	 0.1056207108	-0.046061
H	-0.4808191037	 2.1846938055	-0.4043180987	 0.134706
H	-1.5642990594	 0.9131792077	 1.621243219	 0.111576
H	-0.4165651349	 1.6864616822	 3.5831849349	 0.100096
H	 1.4212960118	 3.3888843655	 2.8487472051	 0.116144
H	 2.0527093726	 1.8705446084	 3.452353093	 0.122446
H	 3.069559027	 2.7730775768	 1.17320921	 0.091091
H	 3.2439307091	 0.571698911	 0.4011348912	 0.239481
H	 1.8822395007	 1.9841743687	-0.8587603095	 0.09986
