23
gdb 88944	2.71367	1.10533	0.99808	2.1292	82.4	-0.2261	0.0659	0.2921	1344.9553	0.20214	-425.406054	-425.395564	-425.39462	-425.441014	40.205	
C	 0.1043302327	 1.443263264	-0.3919749262	-0.41185
C	 0.1181869364	-0.0509985491	-0.0408682196	 0.347324
C	 0.580039095	-0.2747047815	 1.4063060598	-0.398995
C	-1.2646527995	-0.6701571791	-0.2579416145	-0.40216
O	 0.9744573418	-0.807126257	-0.9373436851	-0.307506
C	 2.2627510198	-0.3092999856	-1.1690584182	 0.076248
C	 3.050810702	-1.0531569249	-2.2176607825	-0.363111
C	 2.4794637384	 0.3158731754	-2.5256306899	 0.118663
O	 1.3751588189	 0.4286390176	-3.3703229308	-0.431624
H	 1.065231573	 1.9181753968	-0.1755390103	 0.114963
H	-0.1137960502	 1.5923840609	-1.4526823528	 0.129772
H	-0.6613891916	 1.9561292697	 0.1979336643	 0.113378
H	-0.1041880474	 0.2156395551	 2.1057647124	 0.115414
H	 0.6045153293	-1.3435872277	 1.6357258696	 0.122377
H	 1.577933845	 0.1382789825	 1.5812777835	 0.1144
H	-1.6097533402	-0.4968243784	-1.2816748206	 0.113655
H	-1.2264047111	-1.7495647985	-0.0876698955	 0.123553
H	-1.9953421964	-0.234239708	 0.4292479107	 0.114412
H	 2.7883010535	 0.0710167492	-0.2969451693	 0.090284
H	 4.1197309596	-1.1691168199	-2.0737953423	 0.112512
H	 2.5546498214	-1.8983423942	-2.6835120133	 0.123632
H	 3.1526198302	 1.1600747537	-2.6350188322	 0.099478
H	 0.6812605397	-0.1070756309	-2.9606326374	 0.285183
