20
gdb 70479	3.31163	0.95984	0.85152	4.0291	80.84	-0.2321	-0.0139	0.2182	1401.8612	0.169636	-403.118529	-403.109371	-403.108427	-403.153176	33.735	
C	-0.2274992291	 1.5141726883	-0.0056257052	-0.51065
C	 0.0963163579	 0.0528606907	 0.0221287175	 0.331924
N	-0.6853259709	-0.9128097012	 0.8324148959	-0.369612
C	 0.784888498	-0.8035100163	 1.0294077534	-0.100461
C	 1.4129315639	-1.6807622477	-0.0533250714	-0.242551
C	 0.701168239	-0.7772984628	-1.1319258286	-0.041939
C	-0.2853880057	-1.418409013	-2.1149444532	-0.293217
C	 0.3900128069	-2.3795850615	-3.0614892693	 0.155487
O	 0.3997168523	-2.2773641617	-4.2625197053	-0.244112
H	 0.5970090908	 2.0920647365	-0.4367644357	 0.127696
H	-1.1233273847	 1.7132833969	-0.6057139137	 0.132412
H	-0.4117555345	 1.8953466832	 1.0048860556	 0.11935
H	-1.1311141403	-0.3815339469	 1.5803669133	 0.224902
H	 1.1909742826	-0.5458637504	 2.0006239425	 0.093246
H	 2.5014387445	-1.6130611887	-0.1028177015	 0.106843
H	 1.1130905044	-2.7317036728	-0.0203601574	 0.107567
H	 1.4437724818	-0.1833975827	-1.6738579933	 0.083665
H	-1.0298104653	-1.9708361155	-1.5262642656	 0.136798
H	-0.8001727884	-0.6569138795	-2.7095078159	 0.111678
H	 0.9127375169	-3.228668645	-2.5615989421	 0.070973
