18
gdb 63878	2.59772	1.43593	1.23292	3.3585	73.95	-0.2399	-0.0314	0.2085	1083.4375	0.145685	-439.053689	-439.044845	-439.0439	-439.08673	33.543	
C	-0.0671132261	 1.6017734215	-0.1357695626	-0.459853
C	 0.0015842853	 0.0866485995	-0.0462891941	 0.333625
O	-1.2668174949	-0.5204460881	-0.2278823295	-0.479903
C	 1.1349429774	-0.6420834063	-0.871799999	-0.277189
C	 1.672352915	-1.2273351377	 0.4361160172	-0.0813
N	 2.0209207566	-0.1144916699	 1.3070024561	-0.372752
C	 0.599360893	-0.5167098908	 1.2385363162	 0.234219
C	-0.0708699955	-1.0819838426	 2.4162616462	 0.042968
O	 0.537069345	-1.4636893526	 3.3956428267	-0.292436
H	 0.899043869	 2.040234966	 0.1232650922	 0.148152
H	-0.3241311144	 1.9168833434	-1.1548336449	 0.107176
H	-0.8302058511	 1.9891402172	 0.5464634656	 0.124004
H	-1.639709538	-0.1916694216	-1.0527951415	 0.281304
H	 0.6957590894	-1.3950926542	-1.52828507	 0.111084
H	 1.8393992539	-0.0133699897	-1.4220881313	 0.108008
H	 2.0576043362	-2.2238618238	 0.6153607613	 0.116575
H	 2.3605962117	-0.4995014048	 2.1915322403	 0.253254
H	-1.1719053023	-1.1603084254	 2.3432810509	 0.103063
