19
gdb 77748	1.97294	1.51573	1.42731	2.4023	76.92	-0.2288	-0.0145	0.2143	1094.1786	0.157014	-423.020226	-423.010822	-423.009878	-423.053957	34.955	
C	-0.0030889556	 1.577049516	-0.0095816179	-0.412308
C	 0.0904473731	 0.068562794	 0.1107937023	-0.054932
C	 1.3391388963	-0.7524957	-0.2208975226	-0.257941
C	 2.5379041213	-0.0385649287	 0.3091336877	 0.385755
O	 3.5999303107	 0.2951233711	-0.1416212089	-0.33293
C	 1.9708115492	-0.0434769422	 1.7576524599	-0.068362
O	 1.8006063542	 1.147127253	 2.4896619325	-0.428766
C	 0.7058428857	-0.7184072674	 1.2198782424	 0.318776
C	-0.0096555252	-1.8217728026	 1.9462748057	-0.501456
H	 0.8627035654	 2.0801408021	 0.4207183052	 0.140345
H	-0.0929788897	 1.8689991184	-1.0612700745	 0.118144
H	-0.8907283789	 1.942576918	 0.5178528392	 0.120619
H	-0.792786563	-0.4375746633	-0.2794339864	 0.093952
H	 1.3233086098	-1.5293486315	-0.976164152	 0.107838
H	 2.5648326187	-0.7801066608	 2.3262305787	 0.09306
H	 2.6715736314	 1.5433752251	 2.6063954062	 0.29565
H	-0.5642750792	-1.4243342538	 2.8039901947	 0.13701
H	-0.7290218	-2.3248306934	 1.2924863051	 0.122836
H	 0.6914677256	-2.574171194	 2.3237994929	 0.122709
