18
gdb 94982	2.72313	1.76848	1.351	0.7479	71.36	-0.2383	0.0612	0.2995	972.2077	0.149222	-438.976473	-438.969187	-438.968243	-439.008217	29.169	
O	 0.1009761453	 1.373201131	-0.1496344981	-0.425206
C	 0.0398837849	-0.0251346463	-0.0035723762	-0.056809
C	 0.5671007971	-0.539704843	 1.41151112	-0.105425
O	-0.3166023351	-1.5619442153	 1.9407462773	-0.287339
C	-1.1383472641	-1.9409036138	 0.8564367747	 0.100443
C	-2.6855527413	-1.7113101695	 0.6823299199	-0.084649
C	-2.461886856	-0.2280059871	 1.0101332358	-0.257183
C	-1.3160245821	-0.6805608365	 0.0454878042	 0.302988
N	-2.4111489807	-1.3544797226	-0.7883936776	-0.394832
H	-0.5776678041	 1.7600728773	 0.4154509155	 0.286761
H	 0.6616907297	-0.4354711938	-0.805027455	 0.106932
H	 1.5798825437	-0.9481792708	 1.3219489274	 0.113899
H	 0.5929087088	 0.298274611	 2.1160052751	 0.110601
H	-0.7549017837	-2.8314603286	 0.3377188376	 0.066045
H	-3.5245196711	-2.3560619534	 0.9462262729	 0.0879
H	-3.1893133178	 0.4587780289	 0.577074423	 0.109461
H	-2.1823568599	 0.0088825349	 2.0354938989	 0.117518
H	-2.0103021634	-2.1730537427	-1.2626479254	 0.208896
