21
gdb 103921	2.92766	1.22278	1.14845	2.6176	78.6	-0.2381	0.0729	0.311	1202.7473	0.180444	-424.195022	-424.185609	-424.184665	-424.228601	36.428	
C	 0.10966635	 1.4056086584	-0.1918053494	-0.487382
C	 0.0861618586	-0.0741896295	 0.0099510164	 0.480169
C	-0.9095716096	-0.8619568195	 0.8010062283	-0.356906
C	 0.5733397507	-1.0099945274	 1.0969453224	-0.238993
C	 1.2748835288	-1.7708885664	-0.0316987534	 0.392814
C	 2.7831795231	-1.5783762495	-0.0522195246	-0.432532
C	 0.8795350495	-3.2180058404	-0.3269046523	-0.111135
O	 1.1830254092	-3.5469495443	-1.6710512806	-0.422493
O	 0.6487873076	-0.8887838913	-1.0346132323	-0.382239
H	 1.1236966485	 1.7600882725	-0.4006311889	 0.128456
H	-0.5280555806	 1.6860292835	-1.0380688534	 0.13247
H	-0.2660879644	 1.9194368866	 0.6976023601	 0.123898
H	-1.4534210759	-0.2992549039	 1.5540401796	 0.113901
H	-1.4792021646	-1.6570717004	 0.330156652	 0.114009
H	 1.0084080809	-0.7957818136	 2.0645618465	 0.095471
H	 3.2450860927	-2.1150655118	 0.7843656594	 0.112596
H	 3.1913225391	-1.9757214591	-0.9847447572	 0.138286
H	 3.0405150784	-0.5194449152	 0.0299490862	 0.11623
H	 1.4520550306	-3.9034045096	 0.3074912344	 0.105584
H	-0.1861666165	-3.3737222293	-0.109927437	 0.085289
H	 0.7674241638	-2.8585879798	-2.2058168462	 0.292506
