21
gdb 73495	2.80767	1.7482	1.40547	1.6379	80.73	-0.2376	0.0841	0.3217	1016.1636	0.185346	-387.101947	-387.094398	-387.093454	-387.133622	30.743	
C	-0.0187965235	 1.4790556443	 0.072134997	-0.496314
C	 0.0398890372	-0.0277210761	-0.02571004	 0.328558
C	 1.0267569829	-0.6409562284	-1.0117942362	-0.144535
O	 0.4107131357	-1.7969608219	-1.5704540769	-0.276105
C	-0.7445067861	-2.1561467758	-0.8004279376	 0.086687
C	-0.3517002047	-3.1366767138	 0.3182192602	-0.202357
C	 0.2823662103	-2.2395632071	 1.411217949	-0.246246
C	-0.3466352305	-0.8616290267	 1.1882946946	-0.090805
C	-1.1944490683	-0.8859417788	-0.0682545536	-0.133648
H	 0.9284519196	 1.8916620121	 0.4388895426	 0.120044
H	-0.223782938	 1.9334296704	-0.9040759116	 0.119891
H	-0.8048298894	 1.7996641545	 0.7627814321	 0.117573
H	 1.2484826094	 0.0635803685	-1.824123739	 0.095409
H	 1.9825476899	-0.9105501677	-0.5364163061	 0.091417
H	-1.4834472559	-2.5667510438	-1.4933310777	 0.075332
H	-1.2580313048	-3.6133707042	 0.7103985942	 0.093431
H	 0.3122239763	-3.9226534757	-0.051071631	 0.101972
H	 0.0616016768	-2.6073491156	 2.4170312378	 0.096929
H	 1.3743017537	-2.211872776	 1.3220463173	 0.104664
H	-0.6801628153	-0.300940959	 2.0556346974	 0.076954
H	-2.2008413052	-0.4932446593	-0.1459729125	 0.08115
