20
gdb 62177	4.91813	0.56924	0.52607	3.4466	86.26	-0.2691	0.0351	0.3041	2026.566	0.168604	-366.004596	-365.994007	-365.993063	-366.041208	37.416	
C	-0.1507941288	 1.5907603924	-0.0995229369	-0.391222
C	-0.0568255161	 0.0567679592	 0.0232280704	-0.14994
C	 0.7464071973	-0.4216830836	 1.2574003845	-0.181575
C	 2.2281165682	-0.0371413664	 1.2117065741	-0.192919
C	 3.0095078067	-0.6187242151	 2.4081505539	-0.359629
C	 4.4214110571	-0.2570621379	 2.3891978104	 0.288516
C	 5.5809755206	 0.0562670174	 2.3479568826	-0.429333
C	-1.4029181289	-0.5272419762	 0.0554606114	 0.265637
N	-2.4636364649	-0.9848906066	 0.094866123	-0.322376
H	 0.8438559634	 2.0247285818	-0.2227977487	 0.131826
H	-0.7560185692	 1.8742331629	-0.9638066587	 0.140276
H	-0.6102788891	 2.0219085514	 0.7946980308	 0.136929
H	 0.4346044471	-0.3353869725	-0.8773275952	 0.127853
H	 0.2780295498	-0.0149232316	 2.1623006387	 0.116898
H	 0.6565553469	-1.5119339	 1.3267854207	 0.119913
H	 2.681470924	-0.4006927649	 0.2816722552	 0.114088
H	 2.348818304	 1.0507352131	 1.2134474959	 0.119521
H	 2.5547583151	-0.2704158033	 3.3448925103	 0.134155
H	 2.9110145371	-1.7121782456	 2.4128423587	 0.134517
H	 6.6078251397	 0.3251290155	 2.3241514787	 0.196865
