21
gdb 39403	2.36903	2.07754	1.67874	1.2565	80.66	-0.242	0.075	0.317	934.4012	0.186677	-387.058017	-387.051247	-387.050303	-387.088689	29.019	
C	-0.0521399019	 1.5556748743	 0.0811469031	-0.231497
C	 1.5001695206	 1.4685227158	-0.0474364885	-0.051707
C	 2.1868124763	 1.6104406253	 1.319931489	-0.086029
O	 1.3455174623	 1.2843038086	 2.4137644378	-0.248294
C	 0.8709148621	-0.0492450672	 2.5255296136	-0.086092
C	 0.542176588	-0.7907662739	 1.2268295818	-0.041916
C	 1.778107145	-1.1241130594	 0.3329288678	-0.247376
C	 1.3449456878	 0.0051088865	-0.607853744	-0.012567
C	-0.08592603	 0.0163536633	 0.0196956107	-0.025304
H	-0.4570151069	 2.0654255889	 0.9565583851	 0.108878
H	-0.503959748	 1.9751161971	-0.8231587414	 0.090885
H	 1.968531615	 2.1650943547	-0.7478030472	 0.066966
H	 3.1302589283	 1.0417730076	 1.3510078061	 0.089292
H	 2.4396148118	 2.6629566281	 1.4847187508	 0.105972
H	 1.6018485389	-0.6616167413	 3.0816627425	 0.088129
H	-0.0261797779	 0.0292903888	 3.150663979	 0.10458
H	-0.0434021066	-1.6701771402	 1.5109278383	 0.073803
H	 2.7691088301	-1.0803990064	 0.795869066	 0.091882
H	 1.670763862	-2.1015413883	-0.1471486027	 0.09474
H	 1.5173399816	-0.0861967706	-1.6817367039	 0.057378
H	-0.9411786283	-0.4787811717	-0.4439925737	 0.058278
