19
gdb 80037	2.84634	1.43744	1.203	2.3712	80.26	-0.2293	-0.0289	0.2004	1094.3515	0.159116	-385.863653	-385.855676	-385.854732	-385.896078	31.218	
C	-0.286185736	 1.5046706108	 0.8378648048	-0.436878
C	-0.0654550256	 0.049007042	 0.4696613991	 0.057938
C	 1.0135566435	-0.3801823689	-0.5930311629	-0.114123
C	 2.3050660164	 0.1305504627	 0.0609398343	-0.090552
C	 2.1602243064	-0.2160051939	 1.3436353882	-0.093567
C	 0.7957823076	-0.9184876968	 1.3735406483	-0.092633
C	 0.9414586543	-1.8122026223	 0.0947484703	-0.060772
C	-0.1965965245	-2.7082498438	-0.3092387136	 0.119455
O	-1.2027512326	-2.9091583277	 0.3262476521	-0.246623
H	 0.6499607731	 2.013935781	 1.0790223649	 0.119302
H	-0.7645293782	 2.0417895837	 0.0111593638	 0.113853
H	-0.9517097544	 1.5822833439	 1.7045781993	 0.118179
H	-1.0268212187	-0.4214725626	 0.2478647961	 0.098064
H	 0.8722644855	-0.2449812342	-1.6658180562	 0.065194
H	 3.1109753292	 0.6509363777	-0.436527237	 0.103601
H	 2.8191780494	-0.0578140018	 2.1853353072	 0.103709
H	 0.4171134462	-1.3222910294	 2.3109696222	 0.073569
H	 1.8730599292	-2.3822222426	 0.0039201901	 0.088461
H	-0.0325117008	-3.2207003877	-1.2872232011	 0.073821
