12
gdb 4258	3.89349	2.01562	1.32808	4.1467	58.65	-0.2516	-0.0413	0.2103	827.2666	0.087163	-414.76216	-414.755999	-414.755054	-414.792566	23.303	
O	-0.0177123072	-0.0879549821	 0.003160126	-0.38463
C	-0.025485949	 1.1219708657	 0.009490181	 0.493839
N	-1.202195723	 1.868300133	 0.0292879942	-0.37503
C	-1.2332493289	 3.2390292098	 0.0368782143	 0.054986
C	-0.1084123685	 3.9791498295	 0.0256146645	-0.267512
C	 1.1935508206	 3.3229997473	 0.0046059214	 0.442454
O	 2.2764361345	 3.8680343881	-0.0069876871	-0.366691
N	 1.1057524831	 1.9139807838	-0.0014955356	-0.426387
H	-2.0493438631	 1.3227266227	 0.0378189124	 0.277566
H	-2.2239339802	 3.6779467993	 0.0525367664	 0.146962
H	-0.1335954904	 5.0585433201	 0.031642283	 0.130247
H	 1.9861384723	 1.4162927927	-0.0159135805	 0.274196
