23
gdb 109672	2.00289	1.2409	1.05098	1.2558	82.79	-0.2317	0.0775	0.3092	1346.0549	0.202271	-425.40336	-425.392211	-425.391267	-425.439419	40.435	
C	-0.1445014601	 1.5834281883	 0.0380942366	-0.400234
C	 0.0981683278	 0.0692108627	 0.090377425	-0.225533
C	 0.7318552023	-0.4656582703	-1.1792343398	 0.336199
O	 2.0005772787	 0.0725677743	-1.4748405233	-0.475252
C	 0.6094690255	-1.9153947545	-1.5903447255	-0.097172
C	-0.1358804204	-2.9418716131	-0.7655349615	-0.420778
C	-0.1209621954	-0.821876893	-2.3679767671	 0.032348
O	-1.5007135487	-0.6737404132	-2.2361121514	-0.241279
C	-2.2307872042	-1.4459091367	-3.1708774112	-0.232697
H	 0.7917504973	 2.1376204784	-0.0924151272	 0.106195
H	-0.8171581555	 1.8399413828	-0.7865293894	 0.12997
H	-0.5996572937	 1.9381489945	 0.967494301	 0.113868
H	 0.7552848001	-0.1743604658	 0.9342835942	 0.09905
H	-0.8544816294	-0.436907725	 0.2614688166	 0.11103
H	 1.8785700946	 0.9945357833	-1.7270882312	 0.279257
H	 1.5039644983	-2.2836703058	-2.0852523186	 0.094041
H	-1.1253569693	-2.5823074809	-0.4738326154	 0.129697
H	-0.2748783699	-3.8662387464	-1.3362663528	 0.114118
H	 0.4144255	-3.1974837657	 0.1464276879	 0.119807
H	 0.2699452085	-0.5645699387	-3.3541202624	 0.080881
H	-1.9890110346	-1.1563784898	-4.2046267922	 0.107596
H	-2.0322898004	-2.5203249112	-3.0569027925	 0.112801
H	-3.2910798513	-1.2547713841	-2.9888230295	 0.126086
