13
gdb 49317	2.44763	1.87839	1.06278	5.9888	69.63	-0.2611	-0.1002	0.1609	1023.2807	0.090015	-452.811857	-452.804441	-452.803496	-452.844107	26.854	
N	-0.1250726923	 1.2842945809	 0.0116367061	-0.512682
C	-0.0027290394	 0.0202041608	 0.0037027009	 0.382758
C	 1.2006393538	-0.8399233607	-0.0084276908	-0.162221
C	 0.829994434	-2.1228731153	-0.0135057755	-0.186476
C	-0.6614962302	-2.2115843313	-0.0050512777	 0.416254
O	-1.3455721539	-3.1961388985	-0.0065443087	-0.307675
N	-1.1114233434	-0.8565552717	 0.0053576871	-0.20338
C	-2.4432835732	-0.4049413716	 0.0159335621	 0.168177
O	-3.4047205837	-1.1206913474	 0.0178509068	-0.269962
H	 0.7894929416	 1.7344716174	 0.0087090428	 0.239443
H	 2.2013648302	-0.4293964976	-0.0121036818	 0.142596
H	 1.4450333806	-3.0109092647	-0.0222583858	 0.153473
H	-2.473630984	 0.6957961197	 0.0226216844	 0.139694
