21
gdb 33163	3.06593	1.06804	0.85628	1.6058	86.04	-0.1823	0.0545	0.2369	1418.0863	0.183555	-383.306865	-383.29708	-383.296136	-383.342596	35.637	
C	-0.0244939309	 1.5390581383	 0.1004921366	-0.380853
C	-0.0140299254	 0.0108581351	 0.0207106864	-0.165896
C	 0.7027035613	-0.4983708045	-1.2363571974	-0.148468
N	 0.7524468227	-1.9485192667	-1.3192823833	 0.00156
C	 1.7669389275	-2.7376838694	-0.8234729594	-0.113127
C	 1.4000958032	-4.0543461333	-0.9587028593	-0.161665
C	 0.1166868681	-4.0738864165	-1.5726077121	-0.218419
C	-0.2591626027	-2.7638213883	-1.7807499865	 0.249009
N	-1.4435720459	-2.1817559639	-2.2930230116	-0.611962
H	 0.9925459795	 1.9463689746	 0.1325543166	 0.113077
H	-0.5294765027	 1.9789697957	-0.7668808134	 0.116568
H	-0.5474810664	 1.8836898323	 0.9973499682	 0.11716
H	 0.478486639	-0.4128515799	 0.9037086118	 0.103961
H	-1.0385849243	-0.3750941941	 0.0110852635	 0.121119
H	 0.1982240867	-0.1127347115	-2.1268410745	 0.112187
H	 1.7337130526	-0.1290445304	-1.2625944611	 0.108454
H	 2.6632772058	-2.2862113765	-0.428211063	 0.105904
H	 1.9931253459	-4.9090826704	-0.671392171	 0.087413
H	-0.4617276664	-4.943024012	-1.8484519089	 0.078445
H	-2.2224162373	-2.8197483476	-2.182851538	 0.244731
H	-1.3693365103	-1.9675842308	-3.2842985033	 0.240801
