19
gdb 38748	2.49824	2.27993	1.84735	1.5711	77.89	-0.2309	0.0115	0.2423	857.8293	0.163729	-385.894884	-385.888771	-385.887827	-385.924858	26.958	
C	-0.014872169	 1.5689673647	-0.0023517907	-0.23509
C	 1.5293399304	 1.4999920789	-0.0024705319	 0.120954
O	 2.1078796633	 1.4471135061	 1.3037447276	-0.284015
C	 2.1927699134	 0.0680995987	 1.7262292258	 0.042599
C	 2.4685424342	-0.693262856	 0.413781864	-0.238751
C	 1.4536419927	 0.0196113774	-0.4655000197	-0.05526
C	-0.0451579068	 0.001329854	 0.0433846405	-0.079033
C	-0.1658103707	-0.5139501048	 1.4520502152	-0.07183
C	 0.8775255349	-0.4464925395	 2.2805216821	-0.061428
H	-0.4833591085	 2.1029090524	 0.8263975501	 0.104917
H	-0.3932472906	 1.9547809139	-0.9541004268	 0.094307
H	 2.0811245747	 2.2403204839	-0.5880855119	 0.06951
H	 2.9987403631	 0.0179736138	 2.4603133115	 0.073504
H	 3.4856585639	-0.501664433	 0.0557906141	 0.100858
H	 2.3146061042	-1.7698648007	 0.5099443602	 0.103969
H	 1.5432071863	-0.1542912827	-1.5376057048	 0.07105
H	-0.7688667806	-0.4745852866	-0.6220210396	 0.065703
H	-1.1307933727	-0.8890997688	 1.7821913272	 0.08994
H	 0.8202254878	-0.7730278017	 3.3138103674	 0.088096
