19
gdb 34674	4.98879	1.07409	1.07133	1.1733	86.78	-0.2397	0.049	0.2887	1188.6058	0.161149	-348.680855	-348.673686	-348.672741	-348.712154	30.129	
C	 0.0691929214	-1.1735480435	 0.031673125	-0.409373
C	 0.0120186201	 0.0281678475	 0.0098710866	 0.26809
C	-0.049941175	 1.4620108005	-0.0118104442	-0.257715
C	 0.4169873081	 2.2063686506	 1.2360742827	-0.033456
C	 1.2721348191	 2.2245177368	-0.0082211578	-0.033456
C	 1.2907134515	 3.7374823744	-0.3044504233	-0.052201
C	 1.5689622712	 4.2862042373	 1.1419692935	-0.207708
C	 0.1265461043	 3.7127776749	 1.3894942762	-0.0522
C	-0.1696095458	 4.2025286936	-0.0540877315	-0.228459
H	 0.1136307687	-2.2339793913	 0.0467021734	 0.187974
H	-0.8853594857	 1.8544558863	-0.5802324987	 0.110995
H	 0.6753136497	 1.622295666	 2.1107922688	 0.100006
H	 2.1891803368	 1.6544175545	-0.0919875566	 0.100005
H	 1.857580147	 4.072211378	-1.1730390914	 0.064616
H	 2.3942268112	 3.8386516498	 1.7026073241	 0.092026
H	 1.6161977853	 5.377482763	 1.1903480782	 0.093756
H	-0.4855589437	 4.0224895456	 2.2363909766	 0.064616
H	-0.248613896	 5.2906595599	-0.0925133071	 0.09511
H	-0.9915328982	 3.7691381559	-0.6252794644	 0.097373
