19
gdb 41120	3.76445	1.89029	1.50301	0.2312	82.42	-0.2145	0.0082	0.2227	905.0349	0.162778	-348.707761	-348.701723	-348.700779	-348.737636	26.917	
C	-0.0490531229	 1.5596708646	-0.0299139215	-0.230465
C	 1.4833989384	 1.8939956372	-0.0220861109	-0.357492
C	 2.0294504053	 0.4782474398	 0.0353208414	 0.379648
C	 3.4140380251	-0.136988303	 0.0750409448	-0.244413
C	 3.1665038425	-1.4518223984	 0.1186376851	-0.094826
C	 1.6375038649	-1.5602676903	 0.1027879586	-0.108765
C	 1.1203020575	-0.3861338502	 0.9948739597	-0.057909
C	-0.0175652028	 0.0185617037	 0.0253016295	-0.054114
C	 1.1445035876	-0.4529501049	-0.8834715639	-0.057909
H	-0.5709489082	 1.9912812618	 0.830404281	 0.097257
H	-0.548284362	 1.9286247112	-0.931827736	 0.097257
H	 1.7975876214	 2.4337236774	-0.9211877642	 0.098983
H	 1.7748744494	 2.4965675403	 0.8441416801	 0.098983
H	 4.3607427723	 0.3844111892	 0.0686873505	 0.101847
H	 3.8675268739	-2.2745689263	 0.1569445657	 0.099498
H	 1.1665349054	-2.5433637096	 0.1316914741	 0.056027
H	 1.1249837791	-0.3364916542	 2.0884730346	 0.060259
H	-0.9705094057	-0.513013423	 0.0319330458	 0.055874
H	 1.1773694688	-0.4811200855	-1.9773507445	 0.060259
