10
gdb 721	6.27422	5.98676	3.06356	3.9853	48.99	-0.2329	-0.0503	0.1826	412.1508	0.076104	-264.226909	-264.222683	-264.221738	-264.254291	15.478	
C	-0.0475570132	 1.3807082175	 0.0105655418	-0.101263
C	 1.1886256893	 2.0264348241	 0.0018328402	 0.040334
N	 2.3593582656	 1.3886561573	-0.0133243459	-0.182377
N	 2.3774214419	 0.0569343727	-0.0208306287	-0.182377
C	 1.2244195428	-0.6124922543	-0.0130383572	 0.040334
C	-0.0288203161	-0.000670033	 0.0027799542	-0.101263
H	-0.9721698491	 1.946971285	 0.0228603234	 0.11989
H	 1.2580156689	 3.1104786841	 0.0071136207	 0.123416
H	 1.3231859235	-1.6942459988	-0.0199664898	 0.123416
H	-0.9377331836	-0.5919043346	 0.0085517612	 0.11989
