21
gdb 94935	2.50896	1.48594	1.27275	1.8306	78.65	-0.2305	0.0649	0.2954	1115.7176	0.181671	-424.210883	-424.201667	-424.200723	-424.244418	35.262	
C	-0.0097400662	 1.5820129842	-0.1786437349	-0.438488
C	 0.0307456395	 0.0766978973	-0.0147303584	 0.295517
C	-1.2246536541	-0.6302291786	-0.4978856226	-0.454267
C	 1.3218300759	-0.6759165739	-0.2121268381	 0.042903
O	 2.5021967093	 0.0892390202	-0.2171172788	-0.257749
C	 2.950265947	 0.2434161528	 1.128095695	-0.098912
C	 1.7150404029	 0.1032182422	 2.0535887544	 0.053634
O	 1.187984487	 1.3410677954	 2.5174815917	-0.423425
C	 0.7129241255	-0.6224512386	 1.1673477339	-0.12798
H	 0.9493074584	 2.043905896	 0.0478100631	 0.128865
H	-0.2740313299	 1.8291903076	-1.2138689944	 0.101167
H	-0.7618655348	 2.0275318535	 0.4793119887	 0.11707
H	-1.4345433574	-0.375375089	-1.5429222934	 0.116951
H	-1.130530869	-1.7192488016	-0.4322099104	 0.109165
H	-2.0947247845	-0.334963984	 0.0997108527	 0.119931
H	 1.3693581886	-1.5773415155	-0.8184977409	 0.086545
H	 3.6935238853	-0.5334366245	 1.3661801301	 0.09117
H	 3.4265467287	 1.2251047737	 1.2238890763	 0.100175
H	 1.9673443813	-0.5334023305	 2.9140845621	 0.071374
H	 1.8325754111	 1.7329973884	 3.1152147568	 0.281958
H	 0.2014222754	-1.4781293852	 1.5923849872	 0.084399
