19
gdb 99978	2.74674	1.12446	0.98101	4.1327	71.43	-0.2487	0.0123	0.261	1252.9478	0.157095	-456.339538	-456.328928	-456.327984	-456.374575	38.685	
C	-0.0405833025	 1.5395124496	 0.1391696999	-0.452604
C	-0.0393885116	 0.0038924664	 0.0336830666	 0.218687
N	 0.6200503484	-0.6682606305	 1.1567469886	-0.546974
C	-1.477405237	-0.5306486789	-0.0359996663	-0.094902
O	-2.1305323776	-0.1500073877	 1.1687629882	-0.432523
C	 0.6924949232	-0.4722508941	-1.2570992867	-0.003882
O	 0.1173747317	 0.0049098536	-2.4589399035	-0.420549
C	 2.1288230246	-0.1324130163	-1.187200039	 0.258082
N	 3.2394200735	 0.1837837914	-1.1360101313	-0.3309
H	 0.9813589243	 1.9243361902	 0.2176207955	 0.129906
H	-0.5221118788	 2.0116632689	-0.7255547635	 0.10595
H	-0.5976808187	 1.8435126664	 1.0273446469	 0.143929
H	 1.4820993082	-0.1906462226	 1.4026000992	 0.238116
H	 0.0056817755	-0.616722243	 1.9639245036	 0.243637
H	-1.9813990824	-0.1174871302	-0.9183579591	 0.107345
H	-1.4415406609	-1.6254988803	-0.1329382807	 0.098324
H	-3.0016051675	-0.5558150139	 1.1830231505	 0.295399
H	 0.6136569186	-1.5630622578	-1.2927690166	 0.144406
H	 0.3077256589	 0.9463572688	-2.536725922	 0.298552
