12
gdb 80218	2.31671	1.63264	1.20269	4.4246	61.19	-0.292	-0.0394	0.2526	994.8997	0.076698	-472.61524	-472.607804	-472.606859	-472.647399	27.24	
O	 0.0156369886	 1.3884115651	-0.0024945664	-0.397327
C	-0.0363569838	 0.0242989498	 0.0216196451	 0.104328
C	-0.4748786365	-0.7597048571	 1.186559321	-0.01818
O	-1.4676020535	 0.0111325019	 1.9026044916	-0.278612
C	-2.3803469825	-0.1240916143	 0.8435579551	 0.442133
O	-3.5101963225	 0.215168191	 0.820691763	-0.288383
C	-1.3851552482	-0.8151410403	-0.0529925008	-0.073877
C	-1.620227263	-1.8121941179	-1.0334250765	 0.203206
N	-1.793804503	-2.6243191013	-1.8393653054	-0.334909
H	-0.4167547259	 1.7278598799	 0.7935082199	 0.315433
H	 0.7192038313	-0.4257851378	-0.6156202051	 0.164159
H	 0.0193000789	-1.559227819	 1.7218932385	 0.16203
