14
gdb 3236	5.26706	2.70909	2.3506	1.0454	56.37	-0.2087	0.073	0.2817	602.8075	0.113516	-324.475651	-324.469832	-324.468888	-324.504724	23.626	
O	-0.0929055409	 1.4107490398	 0.0184310408	-0.456621
C	-0.0189349287	 0.0312991023	 0.0211043243	 0.392079
C	-0.2418760381	-0.8340432507	-1.1867907745	-0.35155
C	-1.1670066536	-0.951334833	 0.0142903603	-0.119492
C	-0.4966278481	-1.7099624643	 1.1979175253	-0.042404
N	 0.8621194554	-2.1601401466	 0.7884986824	-0.337736
C	 0.6266797649	-0.75659707	 1.2137490748	-0.131934
H	 0.6642577224	 1.7506524676	-0.4722618803	 0.286236
H	-0.6949499128	-0.2952572839	-2.0138192139	 0.108335
H	 0.4346526052	-1.6354449479	-1.4551285406	 0.138967
H	-2.2296186018	-0.7609194763	-0.0516178594	 0.096762
H	-1.0208994595	-2.1853108074	 2.0164041555	 0.094142
H	 1.2668268354	-2.6512226701	 1.5859602786	 0.228458
H	 1.1558955702	-0.3033590993	 2.0423043967	 0.094756
