20
gdb 78538	2.32138	1.54724	1.22486	1.1038	79.93	-0.2009	0.0747	0.2756	1132.038	0.168851	-403.057259	-403.048116	-403.047172	-403.090445	35.522	
C	-0.1754636694	 1.624824981	 0.0914141538	-0.428232
C	 0.1168788699	 0.140209258	-0.0413733516	-0.06588
C	 0.6959580281	-0.6729078242	-1.1947652112	-0.195905
C	 2.0376012301	-0.1710717868	-1.8178890975	 0.354949
C	 2.5370231106	-0.5946652466	-3.1621889719	-0.506027
N	 2.4182995395	 1.1262897589	-1.1953361758	-0.379583
C	 2.6771955631	-0.1577073307	-0.4872365096	-0.196226
C	 1.3627107066	-0.6778911566	 0.1746045888	 0.354509
O	 1.4209262784	-1.7502227997	 1.0521612053	-0.454489
H	 0.6255790496	 2.2389994232	-0.3070766409	 0.156535
H	-1.1054631519	 1.8642968926	-0.4378562154	 0.10674
H	-0.3298142604	 1.8794902322	 1.1471133246	 0.100613
H	-0.7032095495	-0.4574789998	 0.3646945522	 0.090474
H	 0.1281420896	-1.4709544786	-1.6580214837	 0.091709
H	 1.988193577	-0.0916907651	-3.9677719237	 0.127815
H	 3.6003432681	-0.3566347547	-3.277740686	 0.114807
H	 2.4181497681	-1.6745827136	-3.3023875899	 0.129674
H	 3.3041414897	 1.4040298965	-1.6217893756	 0.221002
H	 3.672692993	-0.4570630801	-0.1823185335	 0.092235
H	 1.45420252	-1.399829486	 1.9496600215	 0.28528
