18
gdb 37592	2.85901	2.37578	2.01866	0.2243	72.31	-0.2317	0.0902	0.3219	788.8365	0.153201	-401.94112	-401.935726	-401.934782	-401.970485	24.434	
C	 0.0027627409	 1.550600081	 0.0901887001	-0.232211
C	 1.4849501022	 1.8314872128	-0.0300843974	-0.036046
C	 2.4538432724	 0.8252812494	 0.500617121	-0.05748
C	 1.9280173665	-0.5231268758	 1.0367378878	 0.065319
C	 1.9621707009	-1.3828977982	-0.2444212469	-0.214715
C	 1.1583382502	-0.3179813278	-1.0067039872	-0.040346
C	 0.012221969	 0.0267916733	 0.0106425508	 0.07107
O	 0.5240626928	-0.4402144728	 1.2764428252	-0.277127
N	 2.09850352	 0.8538986832	-0.9565910472	-0.128398
H	-0.4496290411	 1.890798596	 1.0245041455	 0.11529
H	-0.529032771	 2.0109872953	-0.7511347061	 0.10106
H	 1.8198902074	 2.8584626828	-0.150865195	 0.08989
H	 3.4640743415	 1.1325666396	 0.7556808938	 0.090801
H	 2.4234700566	-0.8949520111	 1.932664201	 0.079634
H	 2.9561614226	-1.5237225632	-0.6735320422	 0.111445
H	 1.4547262893	-2.3409645537	-0.1126121172	 0.104126
H	 0.8411343437	-0.5349235164	-2.0256473888	 0.078776
H	-0.9539115941	-0.4432406345	-0.1821952573	 0.078912
