18
gdb 14108	3.70711	1.7408	1.36482	2.7936	73.14	-0.2365	-0.0109	0.2256	946.8624	0.153245	-347.803218	-347.795342	-347.794398	-347.835608	29.542	
C	 0.4843902381	 1.3496234634	 0.1071169052	-0.49069
C	-0.2376149863	 0.0200213923	-0.0259135993	 0.279093
O	-0.8953810754	-0.4405220954	 0.8868754647	-0.326157
C	-0.0898889546	-0.7034659494	-1.3121000602	 0.263053
C	-1.1283575868	-1.7313942771	-1.7162260182	-0.308833
C	 0.2488893134	-2.2176201746	-1.4520198524	-0.069677
C	 1.1773408399	-1.9066702136	-2.6304403432	-0.222041
C	 0.8264422058	-0.3869877272	-2.5043705184	-0.314818
H	 1.5695743872	 1.2008739473	 0.0630973238	 0.138693
H	 0.222559674	 2.0202556857	-0.7188686942	 0.135817
H	 0.2227927675	 1.8106238528	 1.0600295211	 0.140194
H	-1.8557513717	-1.9339284362	-0.9385796692	 0.142515
H	-1.5169400596	-1.7045544576	-2.7319764184	 0.107501
H	 0.4631381471	-2.8920806575	-0.6320624739	 0.106463
H	 2.2285768826	-2.1069789156	-2.4149449364	 0.10901
H	 0.915857758	-2.3936590779	-3.5753103635	 0.103114
H	 0.3374655148	 0.0776039423	-3.3669847369	 0.09978
H	 1.697779476	 0.2141649083	-2.2370618105	 0.106984
