15
gdb 15030	2.83336	1.74136	1.23003	3.2692	68.01	-0.2472	-0.0351	0.2122	976.3024	0.116017	-362.59071	-362.582372	-362.581427	-362.624152	29.369	
O	-0.8630586906	 0.4868352046	 0.2106211641	-0.232619
C	 0.2880609445	 0.6831423521	 0.4805804862	 0.179186
C	 1.1859574092	 1.6966926953	-0.2540131255	-0.186081
C	 1.3057056952	 2.9024869372	 0.5710063002	 0.30673
C	 1.4186600273	 3.8656163874	 1.2834116853	-0.470073
N	 2.4330735311	 0.9952016238	-0.5854524733	-0.093285
C	 3.6032572121	 1.7868376523	-0.9561900896	-0.221744
C	 3.5624593191	 1.0626720512	 0.3429784825	-0.22683
H	 0.8128722608	 0.1383898034	 1.2944721048	 0.092642
H	 0.6802320315	 1.943132444	-1.193685517	 0.135353
H	 1.5016163817	 4.7284445713	 1.8980968987	 0.210731
H	 4.1754837994	 1.3975100685	-1.7927200973	 0.125161
H	 3.5199300211	 2.8702389099	-0.9125505804	 0.127607
H	 3.4590336978	 1.6718040713	 1.2373891144	 0.129502
H	 4.1026677299	 0.1301237678	 0.4735496568	 0.123719
