18
gdb 28323	4.73269	1.21128	0.98585	2.7127	80.3	-0.1779	0.0548	0.2328	1201.7288	0.149756	-401.983269	-401.975379	-401.974435	-402.015735	29.868	
C	-0.0754764071	 1.488610971	 0.0075705018	-0.492552
C	-0.0155213249	-0.0090005157	 0.006079454	 0.311258
C	 0.0420763642	-0.8150868976	-1.1080191138	-0.250978
N	 0.1545712313	-2.1226106938	-0.6627493667	-0.039767
C	 0.0043555785	-3.4628316298	-1.1859293156	-0.201573
C	 0.35807491	-4.2686091869	 0.0918427771	-0.10049
O	 0.0868601625	-3.3922764254	 1.2038797605	-0.278753
C	 0.1116609755	-2.129113497	 0.6993961804	 0.453369
C	 0.0223939355	-0.8513276847	 1.17694403	-0.462434
H	 0.8056389766	 1.9324991844	 0.4868285519	 0.121873
H	-0.129221605	 1.88125918	-1.0122479295	 0.115016
H	-0.9529921258	 1.8580095917	 0.5516638295	 0.121464
H	 0.0695201839	-0.5687666382	-2.156787511	 0.1106
H	-1.0212552103	-3.6525662896	-1.5294802608	 0.12274
H	 0.6936509188	-3.6772022547	-2.0072968736	 0.125957
H	-0.2387783415	-5.1734434431	 0.2155623954	 0.126917
H	 1.4227372077	-4.5312568945	 0.0990018542	 0.121062
H	-0.0078692999	-0.5386050861	 2.2076830859	 0.09629
