16
gdb 55130	2.6872	1.39777	1.19454	3.561	65.31	-0.2341	0.0082	0.2423	1070.0453	0.122783	-474.995313	-474.986685	-474.985741	-475.029023	32.176	
N	-0.0184842209	 1.336254701	-0.460029849	-0.527632
C	-0.0010637833	 0.1997902667	 0.2999467717	 0.38046
O	 0.9282632513	-0.0973996899	 1.0233534225	-0.352828
C	-1.2949491455	-0.6069014313	 0.2354940027	-0.027971
O	-1.1057793416	-2.0314721292	 0.3653440464	-0.284695
C	-2.0241075956	-2.0857880291	 1.4651375874	 0.045352
C	-1.5009919516	-1.2857961437	 2.629642799	-0.365955
C	-2.2035915418	-0.5925832971	 1.4823262343	 0.295762
O	-3.3373619225	 0.1794332015	 1.5951354382	-0.454013
H	 0.8148666501	 1.9025360918	-0.4756844119	 0.263191
H	-0.7047403154	 1.4817425886	-1.180039759	 0.261936
H	-1.8759609196	-0.3849345685	-0.669247359	 0.084839
H	-2.7087423278	-2.922435883	 1.5196995101	 0.11511
H	-2.1189734709	-1.353681627	 3.5208347098	 0.114847
H	-0.4322477656	-1.1796082913	 2.7797280768	 0.157068
H	-3.1584966593	 0.8923475806	 2.21826159	 0.29453
