18
gdb 68255	2.36975	1.53049	1.4681	4.2369	76.83	-0.2518	0.0106	0.2624	1023.6023	0.147913	-398.058633	-398.050013	-398.049068	-398.091526	32.989	
C	-0.1382727586	 1.5385081349	-0.0815732571	-0.479336
C	 0.0680937585	 0.028535121	 0.0229019129	 0.194566
C	-1.2040188404	-0.6176469055	-0.3231734806	 0.23495
N	-2.2371080448	-1.0766999436	-0.5667931197	-0.348774
N	 1.2970500117	-0.5962859381	-0.7065397469	-0.160774
C	 2.1230493888	-0.0601769822	 0.4804811118	-0.212069
C	 0.880133005	-0.6316808585	 1.1894764644	 0.261862
N	 0.5520281335	-0.5343151301	 2.5713539874	-0.620987
C	 1.0740826559	-1.8230349442	 0.1931397193	-0.243769
H	-0.3297097447	 1.8132594937	-1.1227138888	 0.149744
H	-1.0099836968	 1.8272657033	 0.5114689385	 0.148262
H	 0.7147550166	 2.1118281344	 0.2784987655	 0.133355
H	 3.0612141674	-0.6040292735	 0.6096257153	 0.108588
H	 2.3001888591	 1.0133753014	 0.4724653869	 0.113594
H	-0.3057956406	-1.0371470827	 2.7804300513	 0.243288
H	 1.2865054105	-0.9276005208	 3.1518695905	 0.236778
H	 0.2104063915	-2.4284274169	-0.0851221003	 0.137129
H	 1.9735435273	-2.4317991725	 0.3047527195	 0.103593
