20
gdb 57497	4.05431	0.67103	0.66253	5.3834	93.71	-0.2816	-0.0374	0.2442	1761.1635	0.168288	-366.020049	-366.009642	-366.008697	-366.055521	38.024	
C	-0.0923555439	 1.5533570078	 0.0790974976	-0.403758
C	-0.0169464691	 0.0179414177	 0.0500952031	 0.251444
C	 0.6733929324	-0.5032478905	 1.321246815	-0.403759
C	-1.4345488488	-0.5703639868	-0.0500486247	-0.406011
C	 0.7725464871	-0.4505002892	-1.2122072906	-0.386685
C	 2.145593003	 0.0181507361	-1.2830401883	 0.054072
C	 3.2885099674	 0.4089001158	-1.3408888006	 0.085716
C	 4.5789530704	 0.8481766295	-1.4092564582	 0.200195
N	 5.6774832759	 1.2226457302	-1.466686033	-0.339655
H	 0.9041651119	 2.0014942648	 0.1358307337	 0.128912
H	-0.5873685237	 1.9434918676	-0.8171632557	 0.11261
H	-0.6633617912	 1.8925026439	 0.9492692896	 0.117852
H	 0.1153648485	-0.1989262977	 2.2124596194	 0.117854
H	 0.7310272253	-1.597416062	 1.3214813567	 0.11261
H	 1.6911322237	-0.1120976301	 1.4123863341	 0.128909
H	-1.9503193712	-0.2197632211	-0.950744316	 0.113736
H	-1.4120926808	-1.6653191047	-0.0776433445	 0.113735
H	-2.0349460844	-0.2714487147	 0.814969774	 0.11819
H	 0.7760540677	-1.5479626211	-1.246990121	 0.142017
H	 0.2420950995	-0.1144158654	-2.1129374106	 0.142016
