11
gdb 24803	3.89257	1.2346	0.93731	2.2242	66.62	-0.28	-0.1014	0.1786	1105.8208	0.066922	-451.591384	-451.584471	-451.583527	-451.623326	24.667	
O	 0.0651758727	-0.0589871303	 0.0016065712	-0.316114
C	 0.0053497074	 1.1460955201	 0.0090057268	 0.41343
C	-1.2632987152	 1.892745144	 0.0304888438	-0.31275
C	-1.2464043089	 3.2364002461	 0.037690251	 0.297113
O	-0.0818698563	 3.9464102718	 0.0256801498	-0.211136
C	 1.0662213432	 3.2127372318	 0.0058822869	 0.12703
N	 1.1793110354	 1.9506182084	-0.0026451826	-0.291547
C	-2.4093382718	 4.0661641517	 0.0582021697	 0.258314
N	-3.3627221769	 4.720181113	 0.0748738296	-0.297952
H	-2.198360599	 1.3487991564	 0.0402802076	 0.163438
H	 1.9236998194	 3.879495387	-0.0021847837	 0.170172
