23
gdb 104405	1.99792	1.49104	1.23927	2.114	80.79	-0.2427	0.0686	0.3112	1197.7289	0.204769	-425.439031	-425.42883	-425.427886	-425.473904	38.123	
C	-0.2191805761	 1.4967860703	-0.4082986974	-0.397106
C	-0.2289445911	-0.0197405014	-0.1929774637	-0.196513
C	-1.5935070364	-0.5768978606	 0.2714702505	 0.369527
C	-2.0056729336	-0.0393851244	 1.6379534126	-0.444983
O	-2.6318765416	-0.2310705627	-0.6543431554	-0.295371
C	-2.6248321828	-1.1512266585	-1.7465297478	-0.077036
C	-1.9170045073	-2.4327557458	-1.2539631002	-0.290748
C	-1.6159946099	-2.1239720969	 0.2273357207	 0.094028
O	-0.3972544812	-2.6543974116	 0.7163330135	-0.435781
H	 0.720254604	 1.8128996672	-0.8720330401	 0.105677
H	-1.0429863689	 1.7988493499	-1.061124071	 0.127998
H	-0.3186101776	 2.0465770767	 0.5324912053	 0.114242
H	 0.0517752534	-0.514468575	-1.1301684247	 0.089081
H	 0.5322337102	-0.3141294815	 0.5357739336	 0.111234
H	-2.044150986	 1.0521520129	 1.6451970092	 0.122487
H	-2.9991639921	-0.4128653509	 1.9018389904	 0.113987
H	-1.2919260792	-0.3691060596	 2.398980785	 0.123353
H	-3.6671035893	-1.3232528336	-2.0330900508	 0.104492
H	-2.108018546	-0.7186100278	-2.6142831361	 0.096246
H	-2.5372318841	-3.3245919042	-1.3753416962	 0.098873
H	-0.9749989639	-2.6063547513	-1.7814335879	 0.112637
H	-2.4557660028	-2.4623789239	 0.8519261198	 0.066782
H	-0.4791540675	-3.611599997	 0.7569717806	 0.286893
