15
gdb 23362	3.13969	1.62355	1.2784	1.4764	68.16	-0.2412	0.0011	0.2424	961.453	0.112024	-453.821499	-453.814115	-453.813171	-453.853007	29.253	
O	-0.2516056532	 1.355070687	 0.1268863047	-0.41645
N	-0.03689869	-0.0587497787	 0.0705388289	-0.310623
C	-1.1513784444	-0.6605877475	 0.1061312687	 0.407213
C	-1.5111872589	-2.0800746764	-0.1078921997	-0.132374
C	-2.7780126716	-1.6578074706	-0.7886438207	-0.125296
N	-2.8646408951	-2.317440203	 0.5199757565	-0.142151
C	-3.2438577991	-1.0171816222	 1.1830526621	-0.195073
C	-2.6175036068	-0.2530882957	 0.0046469526	 0.287993
O	-2.9986929554	 1.0093157603	-0.3520105281	-0.470885
H	 0.6317709691	 1.7012317507	-0.0340414562	 0.313323
H	-0.8752882419	-2.9363944088	-0.2758899711	 0.121401
H	-3.2421321896	-1.9772371013	-1.7119802435	 0.11927
H	-4.333996533	-0.9519630844	 1.1985964201	 0.124833
H	-2.8320477458	-0.856823787	 2.1851899196	 0.113258
H	-2.193741684	 1.5318908173	-0.4743108638	 0.305563
