18
gdb 67795	3.14897	1.92458	1.50839	1.6003	80.79	-0.2056	0.0033	0.2089	918.8901	0.149541	-364.800399	-364.793516	-364.792572	-364.831135	28.709	
C	-0.058321096	 1.5294832503	 0.0222650819	-0.482289
C	 0.0063518146	 0.0201564012	-0.0137843842	 0.298043
C	-0.1245521019	-0.6760332948	-1.3101949972	-0.130815
C	-0.8103521167	-1.813934136	-1.1603024701	-0.083184
C	-1.0431672712	-2.0659005913	 0.324412324	-0.134323
C	 0.1666891789	-2.9048093778	 0.7218839372	-0.083986
C	 1.1517289148	-2.0917435345	 1.1204882278	-0.068057
C	 0.6598844126	-0.7066426613	 1.1916568806	-0.117519
N	-0.8003491189	-0.7261890375	 0.9710710642	-0.141031
H	 0.7848078685	 1.9671611261	-0.5232538718	 0.117235
H	-0.9854081691	 1.8863697083	-0.4387454989	 0.127149
H	-0.0287747834	 1.897734852	 1.0509612625	 0.126442
H	 0.2830290417	-0.2867900629	-2.2350549165	 0.098092
H	-1.0181302355	-2.5505430368	-1.9274883972	 0.102449
H	-2.0190128299	-2.4783088361	 0.5924163073	 0.081033
H	 0.2412318804	-3.9682457826	 0.5286646447	 0.102255
H	 2.1672513055	-2.3785029082	 1.3619560392	 0.100497
H	 1.0210839456	-0.0551647082	 1.9851775764	 0.08801
