18
gdb 47822	2.29347	1.93973	1.22704	4.0079	72.35	-0.2386	0.0261	0.2647	1024.114	0.149853	-439.098444	-439.090822	-439.089878	-439.130544	29.967	
O	 0.0595092232	 0.0451430929	 0.3332936179	-0.372178
C	 0.0085795812	 1.2272573408	 0.0581305769	 0.384058
N	-1.1804538073	 1.8820490419	-0.1342771553	-0.285639
C	-1.3115027853	 3.3105702334	-0.3473753303	-0.199833
C	-0.8949823682	 4.1498052752	 0.8761640017	-0.058352
O	 0.2868063035	 3.6785396046	 1.5027698636	-0.237634
C	 1.3314014935	 3.3926067731	 0.6223803876	 0.097493
C	 2.2002322828	 2.2402655765	 1.0170699292	-0.308171
C	 1.2396518042	 2.0909209939	-0.1389191259	-0.175244
H	-2.0028418885	 1.3273373345	 0.0497071737	 0.248114
H	-0.7234940057	 3.6068299428	-1.2221070566	 0.125941
H	-2.3554423096	 3.5325088076	-0.5864642846	 0.117585
H	-0.7841259262	 5.2005640997	 0.5622731426	 0.09333
H	-1.6647154785	 4.1069955283	 1.6526904367	 0.114339
H	 1.7792412141	 4.2621656635	 0.1392695432	 0.084764
H	 3.2608172067	 2.2942254605	 0.8009391696	 0.117233
H	 1.9423810706	 1.7277047204	 1.9366795938	 0.142777
H	 1.6575727197	 2.0418790205	-1.1409084536	 0.111418
