15
gdb 125747	1.9667	1.90127	0.97847	1.633	74.8	-0.2705	-0.0404	0.2301	1150.0415	0.111835	-416.841729	-416.833019	-416.832075	-416.875646	30.382	
C	-0.0305805442	 1.4813030361	 0.0380630366	-0.50082
C	-0.0680325195	-0.0099411281	 0.0528993764	 0.328636
N	-0.2553031586	-0.6938019075	-1.0447157504	-0.195788
O	-0.2334187886	-2.0462372926	-0.6668576052	-0.207812
C	-0.0335199896	-2.1458725916	 0.6477714796	 0.372219
C	 0.0224904659	-3.5026954309	 1.2465309318	-0.499881
C	 0.0821101099	-0.887836726	 1.1801165877	-0.106118
C	 0.2996429272	-0.5407722171	 2.5320510489	 0.19477
N	 0.4778629533	-0.2475061655	 3.6386499309	-0.346375
H	 0.9286584087	 1.8475591671	 0.4168835523	 0.154361
H	-0.1750216942	 1.8479856104	-0.9792171476	 0.158068
H	-0.8143373706	 1.8939625201	 0.6809283771	 0.154384
H	 0.832075662	-4.0879404428	 0.7992176685	 0.164257
H	 0.1901967955	-3.4300742275	 2.3222160818	 0.165843
H	-0.9134995672	-4.041401404	 1.0682930116	 0.164256
