19
gdb 70464	3.50639	0.99745	0.89632	1.2561	81.14	-0.2429	0.0554	0.2983	1336.3417	0.157431	-385.822333	-385.813282	-385.812338	-385.856182	34.628	
O	-0.1512887372	 1.4025041474	-0.072957932	-0.46215
C	-0.0873967423	 0.0208665126	 0.0008869274	 0.3805
C	-0.4166290975	-0.8617525406	-1.1717036096	-0.348028
C	-1.2465798055	-0.9636956719	 0.0885162847	-0.103681
C	-0.4839078761	-1.7906389285	 1.1312481041	-0.244575
C	 0.6686742481	-0.7286438266	 1.1063048749	-0.038159
C	 2.1145962103	-1.1771336588	 0.843999075	-0.386699
C	 2.6664687782	-1.9696568807	 1.9366274762	 0.303956
C	 3.0898368998	-2.6201813688	 2.8547998064	-0.447952
H	 0.4776612338	 1.7038031694	-0.7370000042	 0.286033
H	-0.9001247565	-0.3327520285	-1.9872303636	 0.113298
H	 0.2234859064	-1.6844981028	-1.4840863125	 0.103542
H	-2.310823721	-0.7657213544	 0.0841258304	 0.094997
H	-0.9774287384	-1.8568009327	 2.1021464142	 0.109895
H	-0.2021544205	-2.7994323639	 0.8119440209	 0.100597
H	 0.6385917077	-0.1329253969	 2.0225960439	 0.094446
H	 2.1616127658	-1.758338876	-0.0858610159	 0.124985
H	 2.7421325102	-0.2899076942	 0.6831216017	 0.125583
H	 3.4757149146	-3.195636294	 3.6591343981	 0.193413
