17
gdb 78056	2.92279	1.32843	1.07595	2.1936	74.02	-0.2492	-0.0376	0.2117	1125.1811	0.134021	-421.789249	-421.780796	-421.779852	-421.822766	30.868	
C	 0.2256824568	 1.5777574016	-0.2143269446	-0.448582
C	 0.1473307499	 0.057829615	-0.216851452	 0.037769
C	 1.3030482291	-0.8654444403	-0.7816546482	-0.200771
C	 2.0859966565	-0.6388023279	 0.5550920059	-0.06341
C	 2.9236614806	 0.5944617338	 0.7872439312	 0.09932
O	 3.5342341426	 1.1762826564	-0.0724432512	-0.237825
C	 0.5918115999	-0.7881577955	 1.0369216488	-0.223927
C	 0.5828485325	-1.9569968294	 0.0305656788	 0.44628
O	 0.2089375044	-3.0830128261	-0.0640047894	-0.317572
H	 0.160352077	 1.9589812647	-1.2385157023	 0.134578
H	-0.6259573018	 1.9810149862	 0.3436814372	 0.124645
H	 1.1338667583	 1.9865233235	 0.2262138472	 0.141908
H	-0.8366503956	-0.2366491425	-0.596753755	 0.097032
H	 1.7090503666	-0.896772812	-1.7891088063	 0.106899
H	 2.7252099823	-1.4771057079	 0.8707908789	 0.120302
H	 3.0168391233	 0.8872879077	 1.8586631577	 0.085645
H	 0.2074158175	-0.7444935975	 2.0538715834	 0.097709
