21
gdb 41941	3.21732	1.40181	1.03676	1.8885	83.25	-0.2381	0.0197	0.2578	1172.0346	0.186248	-387.107039	-387.099449	-387.098505	-387.13905	30.369	
C	 0.0037537921	 1.5655614838	 0.1057184408	-0.1096
O	 1.3746673267	 1.9336109289	-0.1143175389	-0.274197
C	 2.2193614414	 0.7802093156	-0.0030931653	-0.101211
C	 1.352425623	-0.2681555296	 0.6940326341	-0.00961
C	 1.6616700441	-1.73380403	 0.6045457642	-0.113785
C	 0.6728440111	-2.6278305924	 0.5341533228	-0.039129
C	-0.8000986743	-2.2818520406	 0.5078697841	-0.256965
C	-1.1028355171	-0.7797973064	 0.7306998479	-0.256396
C	-0.0098583889	 0.0416584307	 0.0605419778	 0.032987
H	-0.3320916352	 1.9449698665	 1.0836573312	 0.087107
H	-0.6122052787	 2.0333814557	-0.6702923115	 0.098421
H	 2.5349961548	 0.4397283693	-1.0017035339	 0.089781
H	 3.1145565315	 1.0613265739	 0.5619731387	 0.099014
H	 1.3041484763	 0.0208768534	 1.7568156911	 0.087931
H	 2.6982979353	-2.0606096698	 0.6350415061	 0.085774
H	 0.9111425949	-3.6881861652	 0.482557234	 0.08645
H	-1.2125633281	-2.6017296258	-0.4605551004	 0.111376
H	-1.3300515214	-2.8864857729	 1.2550769806	 0.106957
H	-2.0978960805	-0.5395316393	 0.3405276982	 0.095015
H	-1.1202471782	-0.5557023293	 1.804933427	 0.100102
H	 0.0489723412	-0.2617215066	-0.9951962485	 0.079978
