23
gdb 82545	2.84174	1.36171	1.25707	0.1606	88.56	-0.2495	0.0852	0.3347	1154.9406	0.207349	-351.146164	-351.137622	-351.136678	-351.179017	34.267	
C	 0.4468792287	 1.7818257385	 0.1895257794	-0.430824
C	 0.1755450341	 0.2966071628	 0.0779455748	 0.002204
C	 1.1691857467	-0.7470493483	-0.3843045146	-0.059381
C	 2.6627197965	-0.4463423324	-0.3639664546	-0.30347
C	 2.9985079967	-0.0461828477	 1.0821937247	 0.377558
C	 4.4153417251	-0.1259444619	 1.5871400824	-0.335556
C	 3.7714709828	 1.2204417447	 1.370661224	-0.294641
C	 1.8254705296	-0.4696004506	 1.981616977	-0.303469
C	 0.6584930205	-0.7612370054	 1.0464196637	-0.059381
H	 1.4522186873	 2.0032950456	 0.5505725901	 0.139108
H	 0.3295089212	 2.269715687	-0.7850448731	 0.112083
H	-0.2640846454	 2.253223555	 0.8779404654	 0.112083
H	-0.8307854658	 0.091541213	-0.28329321	 0.078009
H	 0.8238026207	-1.4804070581	-1.1056741085	 0.074126
H	 3.2075562971	-1.3555934266	-0.6472060825	 0.097898
H	 2.9550497467	 0.3318850327	-1.0791949982	 0.095543
H	 4.5759189953	-0.4571058906	 2.6086751053	 0.107015
H	 5.1885051875	-0.4400890675	 0.8925048207	 0.107015
H	 4.110347886	 1.8176538551	 0.529421571	 0.108257
H	 3.4973674573	 1.8006288101	 2.2466943716	 0.108257
H	 2.0735437263	-1.3870953664	 2.5297700005	 0.097898
H	 1.5939923442	 0.294076097	 2.7338553137	 0.095543
H	-0.0609688791	-1.5049877762	 1.3730486671	 0.074126
