20
gdb 83205	2.44735	1.47011	1.20681	4.1903	81.9	-0.2795	0.0414	0.3208	1119.8635	0.17296	-366.033161	-366.024629	-366.023685	-366.066519	32.286	
C	 0.0721113216	 1.6098946971	-0.4259432229	-0.427604
C	 0.0865688527	 0.132857275	-0.0870357411	 0.00278
C	 1.2432762357	-0.8218312768	-0.2836666602	-0.069402
C	 2.6651656159	-0.2870796436	-0.4116921246	-0.227232
C	 2.9205009278	 0.6075903283	 0.8264952742	-0.246317
C	 1.8558082465	 0.1801321631	 1.8853012933	-0.14373
C	 1.4026996505	 1.2930523413	 2.7219179928	 0.272044
N	 1.0433317176	 2.1728154136	 3.3805128432	-0.33633
C	 0.7351573545	-0.5213658601	 1.11312169	-0.07016
H	 1.0399958211	 2.0983459333	-0.3086147673	 0.123239
H	-0.2374002058	 1.7503335801	-1.4673773647	 0.119019
H	-0.6416513465	 2.1450531317	 0.2083618798	 0.138469
H	-0.8694588064	-0.3355636871	-0.3133953118	 0.092054
H	 1.0340210067	-1.7784193348	-0.7508161944	 0.086757
H	 3.3585484117	-1.1349416017	-0.4172613744	 0.107843
H	 2.8343820352	 0.2641262121	-1.3428596059	 0.109109
H	 3.9312628045	 0.4874537401	 1.2233078967	 0.116346
H	 2.8060765801	 1.6652833537	 0.5868089212	 0.132507
H	 2.3000693035	-0.5618145152	 2.5598359006	 0.124974
H	 0.1500810931	-1.2406273201	 1.6751981657	 0.095635
