17
gdb 52460	2.64095	0.77124	0.61962	4.7333	67.33	-0.2667	-0.0373	0.2295	1704.7899	0.131842	-496.109751	-496.09965	-496.098705	-496.147403	32.859	
O	-0.5517806132	 0.6909152846	 0.3209053003	-0.231007
C	-0.1240495938	 1.5567140875	-0.3931948093	 0.140463
C	 1.2257128844	 2.2230754172	-0.1821611664	-0.145682
O	 1.4860812675	 3.0543760487	-1.2870587622	-0.251018
C	 2.6886834282	 3.7859535123	-1.1864388943	-0.056728
C	 2.7408431405	 4.7592408096	-2.3497866334	-0.104411
O	 1.7459945674	 5.7731397717	-2.2083896687	-0.178823
C	 0.5365525085	 5.5403755922	-2.7649786918	 0.179298
O	-0.3891060034	 6.2767302952	-2.6099688321	-0.273844
H	-0.6864739848	 1.9506477633	-1.2677446048	 0.101219
H	 1.188504402	 2.7978923533	 0.7587528964	 0.131949
H	 1.9951884989	 1.4445965684	-0.0582146386	 0.127249
H	 2.7284355972	 4.342487178	-0.2374661411	 0.11517
H	 3.5636704617	 3.1164369236	-1.2256624768	 0.102301
H	 3.7057018622	 5.2713298437	-2.3708282464	 0.132401
H	 2.6091824045	 4.2187151344	-3.2952323861	 0.125366
H	 0.5160666423	 4.6212383663	-3.3783496445	 0.086096
