16
gdb 97101	2.75799	1.18865	1.0419	2.3112	69.62	-0.2612	-0.0544	0.2068	1202.9998	0.121771	-475.014889	-475.005752	-475.004808	-475.049388	31.926	
C	-0.1202995099	 1.4098471125	-0.0698185759	-0.34406
N	-0.1607186293	-0.0433382783	-0.1663550874	-0.314348
C	 0.5887116494	-0.632461605	-0.9679413744	 0.399895
O	 1.5083801689	-0.1586778961	-1.8937174078	-0.265427
C	 1.9694620182	-1.5041772563	-2.2006734141	-0.129309
C	 0.8480888379	-2.1117285813	-1.307101211	 0.172293
O	 1.2277173857	-2.9708851032	-0.2979841058	-0.461578
C	-0.3061434395	-2.6907068697	-2.1067274763	 0.125503
O	-0.8034641117	-3.7455126234	-1.8033307504	-0.268017
H	 0.6681061807	 1.8759733179	-0.6715184214	 0.130053
H	-1.0887867269	 1.8139338203	-0.3841399686	 0.134931
H	 0.0180924557	 1.6889715173	 0.9795110418	 0.136545
H	 1.9372802735	-1.7002639128	-3.2754611658	 0.123655
H	 2.9646887077	-1.6966146247	-1.7942389463	 0.1427
H	 0.5890074532	-3.7033053967	-0.3173563842	 0.301156
H	-0.6597259537	-2.0916756507	-2.9679902925	 0.11601
