15
gdb 60680	2.03984	1.60948	1.11353	1.7443	66.49	-0.2708	-0.0757	0.1951	1093.5904	0.111068	-453.922864	-453.914146	-453.913202	-453.95664	31.267	
O	-0.1763488819	 1.4229439925	-0.1150061727	-0.440025
C	-0.074878453	 0.0303386235	-0.0783661644	 0.086184
C	 0.807895898	-0.377821901	 1.1247775878	 0.144318
O	 1.2697142579	 0.4639360517	 1.8473590675	-0.246984
C	-1.3970556912	-0.6087057116	 0.1121905522	 0.263582
N	-2.4092339094	-1.1431762051	 0.2711091616	-0.314001
C	 0.5708300861	-0.5155863204	-1.360692879	-0.015867
C	 0.3358705928	 0.1847097023	-2.6427100865	-0.233271
N	 1.6537651554	 0.2444998459	-1.9808825981	-0.324213
H	 0.2454167838	 1.7383978874	 0.7038146554	 0.309736
H	 0.9890227921	-1.4589750051	 1.2598618245	 0.136963
H	 0.7052556934	-1.594855879	-1.35185706	 0.114336
H	 0.3071935115	-0.3886813107	-3.5637183276	 0.132875
H	-0.2868093008	 1.0730159541	-2.6199067015	 0.143577
H	 1.7309136756	 1.1452909855	-1.5104702092	 0.242792
