18
gdb 50149	4.55578	0.9489	0.86288	2.1463	80.11	-0.2389	-0.0312	0.2077	1332.9239	0.147942	-401.939228	-401.931073	-401.930129	-401.972829	30.624	
O	-0.1536328558	-0.0020626595	 0.1613520412	-0.247505
C	 0.0100142688	 1.1779690604	-0.0024689531	 0.156483
C	 1.3497487234	 1.890822222	 0.0439723571	-0.111086
C	 1.558216883	 2.8297924469	-1.1784177257	-0.35487
C	 2.1034907653	 4.1411671967	-0.5977157377	 0.331832
C	 3.2983667455	 4.8327195344	-1.1615397687	-0.288005
N	 1.9583251022	 5.4289673806	-1.2952275039	-0.359939
C	 1.8248822256	 4.0673645044	 0.8598287991	-0.11391
C	 1.4250628374	 2.8499414353	 1.2235282515	-0.109644
H	-0.8511137037	 1.862344757	-0.1939075822	 0.074734
H	 2.1226742494	 1.1169581021	 0.1160584113	 0.102287
H	 2.2090184484	 2.3854000598	-1.9347914036	 0.116851
H	 0.5883683381	 3.0277557293	-1.6549995031	 0.1112
H	 3.978021284	 5.375590241	-0.5098249295	 0.120523
H	 3.7681052545	 4.3885405692	-2.0361323291	 0.113745
H	 1.5999450044	 5.2727639971	-2.234927602	 0.23142
H	 1.9801630077	 4.9143089385	 1.5174721856	 0.112948
H	 1.2005568318	 2.5301048047	 2.2342882627	 0.112937
