18
gdb 58835	3.13607	1.254	1.21293	4.3656	70.96	-0.2254	0.043	0.2684	1113.252	0.145383	-438.973437	-438.964901	-438.963956	-439.006655	32.729	
C	 0.1484736442	 1.5730416907	 0.1183772706	-0.406939
C	-0.0293039903	 0.0602499068	-0.0406737032	-0.00198
O	 0.7537650373	-0.6594825754	 0.9066531845	-0.42305
C	-1.4704951879	-0.3538269114	 0.0219415891	 0.451281
O	-1.866176844	-1.6079425873	-0.5274563479	-0.258763
C	-2.5470681161	-0.434636789	-0.9697783635	-0.076828
C	-3.6044894689	-0.0181520876	 0.1143234858	-0.091355
N	-3.550063453	-1.0162585031	 1.2073139452	-0.307727
C	-2.5316284327	 0.0566621873	 1.1292535009	-0.17178
H	 1.2105038321	 1.8244366798	 0.0644211663	 0.131144
H	-0.3844130328	 2.1211252384	-0.6650524796	 0.119447
H	-0.2296990005	 1.9157795627	 1.0885430247	 0.109884
H	 0.3551859567	-0.2553378218	-1.0165254284	 0.103392
H	 0.3871524908	-0.4966570336	 1.7830254937	 0.281542
H	-2.5712475386	-0.2233577067	-2.0324054845	 0.10957
H	-4.4600679821	 0.6244190666	-0.0433926763	 0.101041
H	-4.2322541815	-0.7156365508	 1.904836029	 0.232542
H	-2.3864103426	 0.7735298646	 1.9267851338	 0.098578
