17
gdb 28065	4.91419	0.80768	0.75401	4.4912	78.19	-0.1916	-0.0079	0.1838	1485.1676	0.136097	-418.047763	-418.038665	-418.037721	-418.083306	32.473	
N	 0.1313859242	 1.4389810117	-0.0803159035	-0.607504
C	-0.0154531263	 0.0389249604	-0.0103870118	 0.302578
C	-1.1089563918	-0.7980922168	-0.0571521287	-0.320529
C	-0.6287143412	-2.1432190768	 0.0019498937	 0.256047
C	-1.4513655467	-3.4003662287	-0.0624192497	-0.386179
C	-1.4799014873	-3.9503711992	-1.4794849782	 0.16668
O	-1.1981936581	-5.0799437035	-1.7863203494	-0.24579
C	 0.7446793834	-2.0776107441	 0.0825504176	-0.175909
N	 1.1034717593	-0.7498719209	 0.0725883958	-0.262677
H	-0.7094702819	 1.8672181336	-0.4473344868	 0.248476
H	 0.3164228996	 1.855224412	 0.8281805413	 0.244975
H	-2.1420997164	-0.4858014749	-0.0989391362	 0.083029
H	-1.0731974731	-4.1851221265	 0.5987853815	 0.120537
H	-2.4870176343	-3.1823489067	 0.2313358461	 0.118161
H	-1.7721671516	-3.1974780255	-2.2472455517	 0.073459
H	 1.48531198	-2.8576211678	 0.1545560434	 0.123805
H	 2.0422072323	-0.3905147764	 0.0486868866	 0.26084
