19
gdb 70914	2.61767	1.70872	1.28744	2.4783	74.07	-0.2447	0.0728	0.3175	1021.3532	0.159667	-423.003535	-422.995681	-422.994737	-423.035148	32.303	
O	-0.0893436008	 1.3825400537	-0.0454723055	-0.467538
C	 0.0447642891	 0.0050588137	-0.0433548537	 0.401382
C	 0.890620607	-0.7920606063	-1.0360149983	-0.372406
C	-0.1247454802	-1.9777459673	-0.839944004	 0.425526
O	-0.6685091616	-2.5506565566	-1.9970556964	-0.497398
C	 0.3804048721	-2.9620636302	 0.228717135	-0.263941
C	 0.5368241108	-2.082208469	 1.4959837357	-0.244941
C	-0.2935117806	-0.8337005954	 1.1817973091	-0.114492
C	-1.0763827692	-1.0015735973	-0.1007607823	-0.182294
H	 0.620517142	 1.7564755701	 0.4882877556	 0.282152
H	 0.7806404139	-0.3815187966	-2.0428458217	 0.11113
H	 1.9502736119	-0.9698594775	-0.8136011824	 0.074793
H	 0.019851879	-3.0691777673	-2.4274979835	 0.276026
H	-0.3778650961	-3.7380700224	 0.378609498	 0.104028
H	 1.3135048723	-3.4547516988	-0.0677082635	 0.085727
H	 0.1540814191	-2.5919787719	 2.3848506506	 0.102986
H	 1.5852386077	-1.8361487723	 1.6983332048	 0.096269
H	-0.7573167954	-0.2711789314	 1.9848427777	 0.085972
H	-2.1429896712	-0.8919580571	-0.2382302151	 0.097019
