15
gdb 125006	2.39457	1.87543	1.05986	3.5609	77.76	-0.2121	-0.0683	0.1438	1065.8064	0.111818	-450.08753	-450.079165	-450.07822	-450.120491	31.125	
C	 0.06024394	 1.5202632173	 0.0384827378	-0.496811
C	-0.0376641475	 0.0295833909	 0.0129035841	 0.349094
C	-1.1814559937	-0.6981386155	 0.0279918668	 0.133743
N	-2.4611216313	-0.1796213165	 0.1040274848	-0.597852
C	-1.0607738481	-2.1413327887	 0.0217537422	 0.365774
N	-2.0917905838	-2.8993170377	 0.0436734326	-0.536306
N	 0.2548234662	-2.6710305894	-0.0196652268	-0.192021
N	 1.2867016992	-1.9946060212	-0.0493878333	 0.037834
O	 1.1813085276	-0.5760413231	-0.0309745065	-0.273305
H	 0.9666466767	 1.8251419059	 0.5675825158	 0.156818
H	 0.1081910396	 1.9437903261	-0.9723936997	 0.148141
H	-0.8051286212	 1.9487935854	 0.5513618909	 0.14536
H	-2.6344228557	 0.6834943092	-0.3871617737	 0.252243
H	-3.1596636546	-0.8939731484	-0.0623387386	 0.275141
H	-1.8078995533	-3.8795456043	 0.0325178836	 0.232148
