22
gdb 119115	2.36164	1.12015	0.88815	2.4381	82.83	-0.2357	-0.0125	0.2233	1433.6685	0.192101	-404.352944	-404.342484	-404.34154	-404.38897	37.822	
C	 1.7979904464	 1.8323283327	 1.2238576354	-0.380931
C	 1.0124087483	 0.5906927202	 0.7948059274	-0.170413
C	 1.3873263401	-0.6539736623	 1.6129635983	-0.264718
C	 0.6062576601	-1.8969338768	 1.2254243722	 0.216161
C	 0.2166403505	-2.8615559456	 2.3064862546	-0.282053
N	-0.8039811459	-2.0452848067	 1.651665426	-0.346016
C	 0.9284347145	-2.4680798149	-0.1383573227	 0.3546
C	-0.093299114	-3.3744557767	-0.7945659426	-0.47897
O	 1.9779867159	-2.1887208052	-0.6781791219	-0.316344
H	 2.8755721121	 1.6770339741	 1.1029284814	 0.120823
H	 1.518400767	 2.7056585696	 0.6267686072	 0.113379
H	 1.6154815793	 2.0767717706	 2.2766878452	 0.109243
H	-0.0641443662	 0.783955741	 0.8924564123	 0.089298
H	 1.1975687009	 0.3864973299	-0.2649598541	 0.121226
H	 2.4542425975	-0.8623950961	 1.4822828353	 0.123503
H	 1.2263440181	-0.4543238118	 2.6808601645	 0.081717
H	 0.1586243438	-3.927255825	 2.1039938784	 0.123421
H	 0.5340162036	-2.6111998771	 3.315518584	 0.121905
H	-1.0591296987	-1.2586423785	 2.244475071	 0.236209
H	-1.0042137306	-2.8048281597	-1.0027649722	 0.155049
H	 0.3257694774	-3.7692896273	-1.7205671658	 0.134248
H	-0.3936885499	-4.1962259944	-0.1380888139	 0.138664
