16
gdb 45811	2.81087	1.74054	1.24872	3.9145	71.26	-0.2171	-0.0064	0.2107	986.0077	0.126318	-437.906092	-437.898717	-437.897772	-437.938406	28.421	
O	 0.1860177821	 0.0874428076	 0.5502482032	-0.360715
C	 0.0210988587	 1.1389804804	-0.0115989135	 0.43785
N	-1.1874194537	 1.8018722024	 0.024835454	-0.377284
C	-1.6410444433	 2.9298268311	-0.6767953775	-0.014845
C	-0.9209798586	 3.9660558966	-1.1120669175	-0.072391
C	 0.5303193677	 4.1833562709	-0.9299793983	-0.112105
C	 1.1720704496	 3.9176835821	 0.4438204894	-0.342404
C	 1.4476917493	 3.0142894716	-0.710979228	 0.115878
O	 0.9967429913	 1.6789778399	-0.790916476	-0.242147
H	-1.8762253322	 1.2773195945	 0.5420890013	 0.264419
H	-2.7144573101	 2.9158279818	-0.8321403538	 0.116842
H	-1.4621791827	 4.7365217738	-1.64930884	 0.10197
H	 0.9419504868	 5.0078484236	-1.5019754104	 0.09578
H	 1.968799666	 4.5692937576	 0.7844960466	 0.126468
H	 0.505430133	 3.572855047	 1.2252022353	 0.142456
H	 2.4319202061	 3.0505522391	-1.1637386149	 0.120227
