17
gdb 46588	2.75441	1.80572	1.35874	3.0809	72.35	-0.2423	-0.0245	0.2178	966.8448	0.136778	-421.809968	-421.802803	-421.801859	-421.841453	28.472	
O	-0.2874322292	 0.2495173825	 0.8932414181	-0.315377
C	-0.1481167036	 1.2219523599	 0.1973421517	 0.336281
C	-1.2320006378	 1.8444207697	-0.7280103556	-0.322912
C	-0.9893742383	 3.3817961315	-0.7012508295	-0.31576
C	 0.4769177687	 3.4689685715	-0.3372530309	 0.318256
C	 1.3804361173	 4.2537105726	 0.6359044395	-0.299561
C	 1.9416237709	 2.8784189237	 1.1621228453	-0.306712
C	 1.0025045844	 2.1733649837	 0.1724941439	 0.184102
O	 1.2978648598	 2.6532553729	-1.1500320154	-0.280029
H	-1.1169152016	 1.4372034322	-1.7366481034	 0.143546
H	-2.2188344032	 1.5555722265	-0.3625571833	 0.130992
H	-1.2288640917	 3.8706929667	-1.6500224153	 0.119341
H	-1.5948391857	 3.854673058	 0.0788842589	 0.11785
H	 2.0907742328	 4.9356136124	 0.1642419269	 0.119445
H	 0.8126553553	 4.7884336964	 1.4000741708	 0.11801
H	 3.0044392447	 2.6839231201	 1.010769717	 0.122901
H	 1.6779599172	 2.6871105298	 2.2034545312	 0.129628
