16
gdb 131876	5.66687	0.80207	0.73524	1.4014	67.13	-0.2401	-0.0042	0.2359	1482.1583	0.125808	-471.190502	-471.182148	-471.181203	-471.224716	29.662	
O	-0.0366594892	 1.4174163103	-0.0270911553	-0.418279
C	-0.0187466396	 0.0047893213	 0.0056202751	-0.06922
C	-1.4174456228	-0.5831666126	 0.0400944133	-0.07804
O	-2.0526130932	-0.17406878	-1.1823215082	-0.289915
C	-3.3354239615	-0.5265876119	-1.337379268	 0.395199
N	-4.0272908124	-1.2500576209	-0.4612704689	-0.302165
N	-5.2251075816	-1.3403778973	-1.048059403	-0.081303
N	-5.3598738317	-0.7407870675	-2.217839081	-0.185615
C	-4.1595175031	-0.205685113	-2.4349190933	-0.143422
H	-0.5869577587	 1.6665820386	-0.7778839199	 0.291556
H	 0.5284809827	-0.4146609847	-0.8533815193	 0.09799
H	 0.5134039784	-0.2879909337	 0.9164522128	 0.116149
H	-1.3967110401	-1.6777718631	 0.1007547179	 0.116562
H	-1.9869759643	-0.1955513175	 0.891896151	 0.12733
H	-5.984242686	-1.8388927277	-0.6152489926	 0.29391
H	-3.9391779169	 0.3605512099	-3.3240126806	 0.129262
