19
gdb 53087	3.44166	0.89394	0.75712	1.5044	92.3	-0.2207	-0.0143	0.2063	1553.3221	0.158409	-385.886797	-385.877039	-385.876095	-385.923509	34.511	
C	-0.0816129376	 1.4981441691	-0.2122909369	-0.508267
C	-0.0253579066	 0.0475686706	-0.1285217652	 0.212939
C	 0.0289622554	-1.1565752896	-0.0568155351	-0.112316
C	 0.0323407623	-2.5696111077	 0.0169652639	 0.140265
C	 1.1008210883	-3.3843519299	 0.0306455924	-0.179147
C	 0.7314267143	-4.8396997749	 0.1367279729	-0.257604
C	-0.8075518255	-4.8296711502	-0.0366901139	-0.244496
C	-1.2603388151	-3.3650034671	 0.1907492965	 0.025776
O	-1.8548091985	-3.1273336628	 1.4634942156	-0.426877
H	 0.6855148327	 1.9644941198	 0.416202008	 0.149122
H	 0.0796392234	 1.8438428515	-1.2399994923	 0.149877
H	-1.0560743298	 1.8769433665	 0.1151155148	 0.15237
H	 2.1283938997	-3.0409633922	-0.015053221	 0.096685
H	 1.2297000695	-5.4479136626	-0.6272089498	 0.111514
H	 1.0499903659	-5.2573760905	 1.102348815	 0.109759
H	-1.0648674552	-5.1360237935	-1.0550082966	 0.108061
H	-1.3319543277	-5.4984018932	 0.6497428025	 0.106885
H	-2.0299850763	-3.0617573326	-0.5247331285	 0.089121
H	-1.1570911391	-3.1860001009	 2.1256605677	 0.276332
