17
gdb 11551	6.67662	1.05721	0.95285	2.0452	65.95	-0.2371	0.015	0.252	1222.359	0.140702	-400.992463	-400.983762	-400.982818	-401.027047	29.767	
C	 0.0713309383	 1.3949999753	 0.0517060034	-0.239426
O	 0.3469418197	-0.0096594698	-0.021786579	-0.231185
C	 0.6590688107	-0.5967435201	 1.1518431702	 0.45227
O	 0.731245184	-0.0114898653	 2.1999496631	-0.346486
C	 0.8537340965	-2.0919722202	 0.9496800372	-0.281313
N	 1.6522618305	-2.663745473	 2.0126070833	-0.052676
C	 0.9492086721	-2.9908671366	 3.2462279901	-0.199281
C	 1.4021755966	-4.0689434677	 2.3251672692	-0.225287
H	 0.9434072953	 1.9390191148	 0.4228767501	 0.143581
H	-0.1674401643	 1.704711813	-0.9657178127	 0.133152
H	-0.7721500592	 1.588851245	 0.7193698081	 0.139503
H	-0.1585785007	-2.5352677272	 0.8712705001	 0.108626
H	 1.3442333315	-2.2597996763	-0.013784629	 0.134299
H	 1.4895905044	-2.7772821046	 4.162783015	 0.123942
H	-0.1192104162	-2.7891918567	 3.2929985631	 0.112396
H	 0.6369705797	-4.5926422277	 1.7537203149	 0.108003
H	 2.2832880911	-4.6613649428	 2.5529149531	 0.119883
