20
gdb 10304	2.2145	1.75103	1.24713	3.3692	75.63	-0.2338	0.0329	0.2667	1089.331	0.175667	-345.190043	-345.180226	-345.179282	-345.224536	34.754	
C	 0.2317365274	 1.9429079085	-0.2384888803	-0.388539
C	 0.2839215893	 0.4279149026	-0.0356501514	-0.196708
C	 0.6725544129	-0.3273127623	-1.3251278254	-0.106879
C	 0.8284077369	-1.7792888626	-1.0396010431	 0.270164
N	 0.9079358723	-2.9181538006	-0.8547827295	-0.334072
N	-0.2258284143	-0.0722571227	-2.4473705276	-0.043551
C	 0.3532602679	-0.4667209464	-3.7265566663	-0.330366
C	-1.5737753663	-0.6063540434	-2.2808005495	-0.337858
H	 1.2079872551	 2.3331333699	-0.5467208432	 0.116393
H	-0.491101175	 2.2121391352	-1.0118065456	 0.136344
H	-0.0495060918	 2.4448512761	 0.6916300054	 0.117838
H	 1.0234186545	 0.1701682813	 0.7301373245	 0.119289
H	-0.6757153925	 0.0548509617	 0.3362434429	 0.118179
H	 1.6621685341	 0.0356509075	-1.6301499054	 0.12148
H	 0.4944387056	-1.5572228456	-3.8255236113	 0.119083
H	-0.3037813977	-0.1349780829	-4.5357198938	 0.124718
H	 1.3253266566	 0.0186010777	-3.8588709938	 0.121095
H	-2.0319546906	-0.2162090656	-1.3690535246	 0.125527
H	-2.1865833842	-0.2797669336	-3.1255907241	 0.12531
H	-1.6029749902	-1.708611195	-2.2396646479	 0.122553
