16
gdb 39609	2.70313	1.71929	1.0864	0.946	78.84	-0.2298	-0.0329	0.1969	1055.1072	0.126194	-396.846518	-396.838782	-396.837838	-396.878531	29.558	
C	-0.0556835107	 1.4684888616	-0.3342815163	-0.279844
N	 0.7461196014	 2.3833766372	 0.4860857634	-0.217158
C	 1.6415015878	 2.3013679652	 1.3809532743	 0.078021
N	 2.229914333	 1.2342588453	 2.1053441807	-0.331761
C	 1.6730018774	-0.0159278128	 1.9163556796	 0.131193
N	 2.2733078216	-1.0709387975	 1.5427036747	-0.243345
C	 1.3009775998	-2.000124659	 0.8807874035	-0.262286
C	 0.4829925488	-1.1138152262	 0.0133357684	-0.148638
C	 0.1507530295	 0.0107759138	-0.2859581066	 0.207442
H	-1.1043907684	 1.6981955121	-0.1011538398	 0.149405
H	 0.0830849472	 1.829018257	-1.3614437243	 0.15148
H	 2.0809925542	 3.2508100457	 1.7017753751	 0.117347
H	 3.2394794914	 1.2873827271	 2.1832331453	 0.25679
H	 0.5887802052	 0.0600317252	 1.9932939266	 0.123733
H	 1.8756578025	-2.7365163066	 0.3142373782	 0.138321
H	 0.6775354792	-2.5589300781	 1.5932946273	 0.1293
