19
gdb 94786	2.65175	1.50691	1.16332	3.5184	75.82	-0.2174	-0.0244	0.1929	1112.0081	0.160576	-419.195047	-419.186541	-419.185597	-419.228372	32.211	
C	 0.5064525113	 1.4608675782	-0.1934560231	-0.375138
C	-0.0752959743	 0.0671026317	 0.0808953728	-0.105554
N	 0.1377264009	-0.8568854521	-1.0533323409	-0.299261
C	 1.4016478925	-1.5765151889	-0.7895796207	-0.293488
C	 1.5192513575	-1.6743250235	 0.7259155373	 0.213145
C	 1.6755097825	-2.9526265342	 1.4798518833	-0.275793
N	 2.7647110649	-1.9735216931	 1.452324759	-0.334368
C	 0.6328150536	-0.5820260276	 1.2820147011	 0.367537
O	 0.4945265174	-0.2982648786	 2.4438147645	-0.323671
H	 1.5791441419	 1.4099174858	-0.4065196833	 0.121069
H	 0.010434915	 1.9072444124	-1.0588405054	 0.126107
H	 0.3647748526	 2.1049348054	 0.6787502401	 0.13635
H	-1.1442865011	 0.1622121845	 0.2926127541	 0.100008
H	-0.6171091457	-1.5347895057	-1.0616788361	 0.224746
H	 1.3985669671	-2.5458315272	-1.2944871925	 0.110813
H	 2.2406466696	-0.9964161209	-1.1976727451	 0.116922
H	 1.1838729496	-3.0482818996	 2.4440926144	 0.139903
H	 1.7663181667	-3.8699273646	 0.9026559747	 0.115564
H	 3.471380098	-2.2640913121	 0.7778778258	 0.235109
