16
gdb 34888	2.2834	1.76814	1.22184	5.0675	72.98	-0.2735	0.0191	0.2926	1028.2912	0.124033	-400.700624	-400.693013	-400.692068	-400.732896	29.028	
N	-0.1176008505	-1.176263119	-0.0722088559	-0.333925
C	-0.0737595722	-0.0223012217	-0.0205893291	 0.301255
C	-0.0000168806	 1.4295247022	 0.0189459228	-0.296507
C	-0.234729309	 2.1198465329	 1.3900211317	 0.027849
O	 0.7955319659	 1.705489587	 2.2742811721	-0.225642
C	 1.0900384941	 2.7574259258	 1.3393347454	-0.07482
C	 1.4137286982	 2.0966431643	 0.0156466551	 0.361827
C	 2.7140869839	 1.5285643639	-0.4520538333	-0.318529
C	 2.0932081824	 2.7043788103	-1.1737342342	-0.335674
H	-0.6416042714	 1.8556263324	-0.7581278243	 0.131333
H	-1.1806385377	 2.4393696506	 1.8092848576	 0.123893
H	 1.4377937396	 3.7016901537	 1.7403538793	 0.120714
H	 3.5931071838	 1.7000219766	 0.1595829438	 0.12796
H	 2.6867389695	 0.5589046514	-0.9377844877	 0.141436
H	 1.6569946167	 2.5350545549	-2.1527226589	 0.125393
H	 2.5486748173	 3.6820274546	-1.0521116644	 0.123436
