18
gdb 94246	1.96362	1.46576	1.30017	3.1163	76.83	-0.2737	-0.052	0.2217	1116.5455	0.146245	-401.966033	-401.956844	-401.9559	-402.000159	33.241	
C	-0.609583309	 1.2696107813	 0.0410242366	-0.430186
C	 0.1602323012	-0.0338439561	-0.0906004144	 0.009318
C	 1.5642344403	-0.0406012663	-0.7466752085	-0.237739
C	 2.0426393845	-1.0741037706	 0.3018001299	-0.257762
C	 0.819442343	-0.7113180601	 1.2022614307	 0.044048
C	 1.1482491123	 0.3386371421	 2.2603111401	 0.117345
O	 2.152030339	 1.0002255924	 2.2466353619	-0.244199
C	 0.0553405899	-1.7943385105	 1.7967929565	 0.2163
N	-0.561307548	-2.6509868507	 2.2701324912	-0.334431
H	-0.0039807873	 2.053967768	 0.5054896578	 0.136267
H	-0.9032950356	 1.6244581578	-0.9525425288	 0.131204
H	-1.5236663358	 1.1425294087	 0.6305182269	 0.131712
H	-0.4730426852	-0.7973796485	-0.5509201931	 0.107454
H	 1.6095851597	-0.3328304363	-1.7970869954	 0.111132
H	 2.071528801	 0.9188236363	-0.6205572878	 0.128045
H	 1.9804963254	-2.1044303602	-0.050933317	 0.126825
H	 3.0112016382	-0.8964214981	 0.7686305642	 0.136192
H	 0.3687240464	 0.4745910307	 3.0385443192	 0.108475
