17
gdb 46067	2.99278	1.34909	1.13801	2.8288	67.7	-0.2733	0.0021	0.2753	1104.2285	0.136346	-458.986839	-458.978915	-458.97797	-459.020279	29.116	
O	 0.7926873235	 0.5284046521	 0.6860793756	-0.322338
C	 0.3599840746	 1.5501143934	 0.2476319205	 0.401657
C	-0.8815770405	 1.7912269995	-0.5984359175	-0.22474
O	-1.0100097327	 3.1940713332	-0.6657432136	-0.259012
C	 0.2317047047	 3.7701324977	-0.2799471265	 0.189102
O	 0.9475464525	 2.7640381236	 0.4382423121	-0.223178
C	 1.0218248713	 4.2736330239	-1.4634968684	-0.019327
C	 2.5075935032	 4.4949161347	-1.3580156399	-0.267347
C	 1.9709474819	 3.3869037048	-2.2295672431	-0.27878
H	-0.7475836493	 1.3299985545	-1.5869508244	 0.138629
H	-1.764502366	 1.3519559177	-0.125074602	 0.148258
H	 0.0130215194	 4.5848316891	 0.4198271318	 0.109525
H	 0.4541608622	 4.9985353944	-2.0391842237	 0.10337
H	 2.9263331179	 5.3756895674	-1.8310281156	 0.118379
H	 2.9907970182	 4.202077091	-0.4328380989	 0.133871
H	 2.1265130223	 2.370084303	-1.8877466122	 0.132282
H	 2.0083945168	 3.5071806801	-3.3061243943	 0.11965
