21
gdb 59045	2.55156	1.26763	1.04827	3.2791	81.2	-0.2404	0.0141	0.2545	1251.391	0.182251	-424.241028	-424.231507	-424.230563	-424.275317	36.052	
C	-0.0028384533	 1.5444467822	 0.1247235338	-0.401173
C	-0.0167113573	 0.0120857695	 0.0226670874	 0.023446
O	 0.754042924	-0.5702414096	 1.0714050177	-0.442104
C	-1.4142337067	-0.5533166989	 0.0022657856	 0.34686
C	-1.9816454566	-1.2948341787	-0.9495215397	-0.201051
C	-3.4061694334	-1.6772568485	-0.6305196906	-0.257194
C	-3.5282191808	-1.3116192257	 0.8693897118	-0.24327
C	-2.39429116	-0.2954930967	 1.1309358321	 0.016798
O	-1.737782803	-0.4768520475	 2.3952907464	-0.438441
H	 1.0316801771	 1.8981340946	 0.1354893956	 0.121542
H	-0.5249144204	 2.0068775169	-0.7200353146	 0.107376
H	-0.481244465	 1.8754607928	 1.0523092619	 0.111642
H	 0.4861663127	-0.2808610844	-0.9068102935	 0.080175
H	 0.1968308183	-0.5460882444	 1.8612708531	 0.289996
H	-1.4952239872	-1.5763592064	-1.8780103676	 0.09274
H	-4.1131389288	-1.1014902886	-1.2439912515	 0.108593
H	-3.6198087444	-2.7334142237	-0.8293544381	 0.108508
H	-4.517539128	-0.9359281769	 1.1448907888	 0.091093
H	-3.3160181431	-2.19067054	 1.4858627112	 0.118287
H	-2.7650436133	 0.7407845658	 1.0778496988	 0.077362
H	-2.284637021	-0.0927045717	 3.0868747712	 0.288816
