14
gdb 125391	3.31459	1.66941	1.11793	3.063	70.13	-0.2321	-0.028	0.204	1011.8262	0.10262	-436.678887	-436.672063	-436.671119	-436.710218	25.89	
C	-0.0145758303	 1.5276515915	 0.0372064747	-0.503685
C	-0.0069275483	 0.0327694405	 0.032189603	 0.045424
C	-0.0370260742	-0.8020303432	-1.0542607797	-0.075799
O	-0.019771458	-2.1400810752	-0.7342368	-0.203315
C	 0.0233682163	-2.1563250896	 0.620373118	 0.214772
C	 0.0326875502	-0.8892087121	 1.1259648696	 0.299213
O	 0.0753100362	-0.9226654053	 2.4633402119	-0.236195
N	 0.0945703543	-2.2867339829	 2.8467899738	-0.140043
C	 0.0634912984	-3.0071796419	 1.7409298973	-0.116227
H	 0.8814327288	 1.9278114681	 0.5234066933	 0.144646
H	-0.0507386041	 1.920545052	-0.9819764681	 0.132354
H	-0.8802093606	 1.9185489443	 0.5823679674	 0.144646
H	-0.0717685792	-0.5875270855	-2.110769309	 0.147687
H	 0.0718207604	-4.0834933507	 1.8233858479	 0.146523
