15
gdb 130233	3.19782	1.42377	0.98678	4.0596	76.31	-0.2053	-0.0368	0.1685	1125.3457	0.113936	-450.123867	-450.115767	-450.114823	-450.156156	31.433	
N	 0.0445631202	 1.3083222308	-0.1985039997	-0.580512
C	-0.024539829	-0.0376155657	-0.0934565445	 0.320868
C	-1.1441021893	-0.8041947691	-0.0439163628	-0.289521
C	-0.9955451809	-2.229150819	 0.014646296	 0.405761
N	-2.1440965186	-3.0097201544	 0.1152927755	-0.564498
N	 0.132448082	-2.8750494205	 0.0240352617	-0.217095
O	 1.2964235997	-2.0643950008	 0.0454588716	-0.284069
C	 1.283642177	-0.7148684451	-0.0320298882	 0.400533
N	 2.3539169904	-0.0200120589	-0.0326819396	-0.564221
H	 0.9633158032	 1.7092698459	-0.0756063314	 0.282733
H	-0.7698008473	 1.8781605669	-0.0525349798	 0.260075
H	-2.1379206956	-0.3711622953	-0.0379797368	 0.091559
H	-2.9047915166	-2.703232727	-0.4756526714	 0.250973
H	-1.946971589	-3.9952754638	-0.0047019495	 0.258481
H	 3.1794499239	-0.6154511141	 0.0254105689	 0.228931
