21
gdb 119618	4.07389	0.93946	0.86211	1.4424	79.11	-0.2286	0.0835	0.3122	1418.5313	0.18258	-424.201071	-424.192112	-424.191168	-424.235208	33.333	
C	 0.0219491337	 1.3849977598	-0.3299002807	-0.220396
O	 0.0089873168	-0.0180677619	-0.2321318056	-0.235479
C	-1.2706736184	-0.5345603971	 0.0820913202	-0.164983
C	-1.1795275883	-2.0263055814	 0.2024481967	 0.315213
C	-1.3008428768	-2.906305724	-1.0340630945	-0.366722
C	-2.3666273596	-2.9359140195	 0.0312062807	 0.068764
O	-2.348731744	-3.959994072	 0.9885884342	-0.259134
C	-1.0271316361	-4.0310719315	 1.5277153607	-0.096427
C	-0.4056533074	-2.6255486168	 1.3706104868	-0.291757
H	 1.0445262615	 1.6882874981	-0.5676446695	 0.126509
H	-0.64939969	 1.7471547099	-1.1254512902	 0.101488
H	-0.2806781579	 1.8656944667	 0.6145473691	 0.101866
H	-1.6305741783	-0.096299251	 1.030464589	 0.083772
H	-1.9976456802	-0.2549314286	-0.7002737677	 0.080209
H	-1.5457181932	-2.4058360072	-1.9651723667	 0.113191
H	-0.6396147248	-3.7583666076	-1.1481550783	 0.11545
H	-3.3731207369	-2.5888573214	-0.1736815241	 0.099721
H	-1.107432534	-4.3608554718	 2.5670118964	 0.110439
H	-0.437951979	-4.7811082779	 0.9820483074	 0.099961
H	 0.6737375379	-2.6708067962	 1.2047261436	 0.114768
H	-0.5819411851	-2.0157172585	 2.2641150425	 0.103546
