21
gdb 122360	3.42837	0.69828	0.66435	1.0122	75.41	-0.2314	0.0505	0.2819	1744.7345	0.18069	-461.326171	-461.315731	-461.314787	-461.362488	37.679	
O	-0.0623754757	 1.3002802411	-0.5065269071	-0.422898
C	-0.0020033027	-0.0217490886	 0.0100283198	-0.074108
C	-1.3752726044	-0.6575109195	-0.1564569316	-0.161702
C	-1.431564317	-2.0920421814	 0.3830747162	-0.207027
C	-2.8072934811	-2.7136714173	 0.258815891	-0.0926
C	-3.3206820079	-3.2537687868	-1.0558188642	 0.022849
O	-2.4003836316	-3.246886839	-2.1238442316	-0.423036
C	-2.9914376608	-4.210975393	 0.0669180713	 0.071002
O	-1.8791920415	-5.0353020163	-0.1061098532	-0.42994
H	 0.8063880208	 1.7002899135	-0.4082758684	 0.283374
H	 0.7523951506	-0.6237056283	-0.5232653197	 0.083334
H	 0.2810854271	-0.0192743285	 1.0760743415	 0.080448
H	-2.1125215918	-0.0282587184	 0.3575917872	 0.098038
H	-1.6405447515	-0.652707187	-1.2190581268	 0.119001
H	-0.6974005214	-2.7128165719	-0.138581457	 0.100822
H	-1.1398159911	-2.1052609659	 1.4415981995	 0.096851
H	-3.573113745	-2.2305620366	 0.8620143147	 0.087008
H	-4.3518331847	-3.0597098101	-1.3431193094	 0.090328
H	-2.7414727031	-3.8323324345	-2.8088904867	 0.296991
H	-3.7891273013	-4.7162698862	 0.60323759	 0.098061
H	-1.498803916	-4.7901909351	-0.9612519954	 0.283205
