19
gdb 90933	2.98393	1.43614	1.4087	0.856	73.77	-0.2221	0.0684	0.2905	1033.852	0.159854	-422.990015	-422.982291	-422.981347	-423.021768	31.239	
C	-0.0434956492	 1.5849840807	 0.0159741991	-0.413683
C	 0.0412877173	 0.0595296957	-0.003245453	 0.040932
C	 0.8486132462	-0.5278201227	-1.2034122623	-0.247915
C	 1.5946878126	-1.7200463522	-0.6086246267	-0.126917
C	 2.5141147483	-1.4203540148	 0.584501245	-0.003271
O	 2.1821090165	-0.1475098843	 1.1415848969	-0.30669
C	 0.7686748163	-0.544946977	 1.1983369073	 0.003897
C	 1.1489082364	-1.9973233366	 0.8002334189	 0.308395
O	 0.6309168819	-3.1917210016	 1.2425819355	-0.455232
H	 0.9578649502	 2.0170407118	 0.1035394614	 0.134733
H	-0.5023887605	 1.9663638967	-0.9019211623	 0.112569
H	-0.643485962	 1.9414636278	 0.8602889363	 0.108389
H	-0.9723141783	-0.3653116655	-0.0121289013	 0.075898
H	 0.1907358901	-0.8340304025	-2.0217308981	 0.101021
H	 1.5428321264	 0.2184090971	-1.6034768224	 0.10742
H	 1.8907781007	-2.5661786782	-1.2194511295	 0.092944
H	 3.5281097099	-1.7854846091	 0.696507874	 0.105972
H	 0.3394868408	-0.3496761901	 2.1845289202	 0.071883
H	 0.8675824764	-3.3021085452	 2.170646811	 0.289655
