17
gdb 89676	2.9945	1.2655	1.06332	1.6144	77.3	-0.2175	0.0378	0.2552	1151.3263	0.133175	-421.75741	-421.748276	-421.747331	-421.790908	34.601	
O	 0.1024450437	 1.4463269424	 0.024800282	-0.432179
C	 0.0373462398	 0.038534293	 0.0796047934	 0.076726
C	 0.2521469899	-0.5493515069	 1.5030419713	-0.302855
C	-1.0796818881	-1.3086040474	 1.385475288	 0.106941
C	-2.1877438466	-0.2779015409	 1.1568112835	-0.39912
C	-1.3299454429	-0.6299896323	-0.0043666386	 0.331914
O	-1.7727828694	-1.1168105663	-1.2138228215	-0.456111
C	-1.3389426648	-2.6330402776	 1.8202264466	 0.158593
C	-1.5449006697	-3.7667794363	 2.1721625162	-0.405439
H	-0.0693455517	 1.7196277591	-0.8824091724	 0.287783
H	 0.7178938574	-0.4264729029	-0.6458726528	 0.085488
H	 1.1256961195	-1.1977779808	 1.5758032625	 0.118356
H	 0.2864377704	 0.2045697241	 2.294709915	 0.110154
H	-3.1850764966	-0.7093276582	 1.1372875062	 0.118686
H	-2.1267343653	 0.6995680126	 1.6312790357	 0.125957
H	-2.7220372358	-1.267998869	-1.169664539	 0.292937
H	-1.7265984096	-4.7639485628	 2.4870576139	 0.182168
