14
gdb 28655	5.73768	1.01957	0.86602	6.2424	82.7	-0.2324	-0.0392	0.1932	1236.8911	0.104077	-395.817055	-395.809647	-395.808703	-395.848874	28.191	
N	-0.0407023389	 1.3694976296	 0.1203090211	-0.559481
C	 0.0221820331	 0.0068796603	 0.0469919723	 0.409117
N	-1.1558630759	-0.6379879725	 0.0394562033	-0.332436
C	-1.1428996428	-1.9641970437	 0.0129153681	-0.051294
C	 0.0253212674	-2.7360498095	-0.0142236321	 0.107181
C	 1.2529021574	-2.0494015046	-0.0112991005	-0.142082
C	 1.2584570541	-0.6735313065	 0.0204019529	-0.181496
C	-0.0371480211	-4.157858427	-0.0471704674	 0.196647
N	-0.0887479508	-5.3152080955	-0.0743660485	-0.339835
H	 0.7624781277	 1.9154241414	-0.140541809	 0.261973
H	-0.9447252293	 1.7788549458	-0.05365191	 0.26718
H	-2.1117663428	-2.4565165336	 0.008666426	 0.132487
H	 2.1828648331	-2.6059314683	-0.0337725617	 0.12975
H	 2.1902853788	-0.1192020859	 0.0288835655	 0.102289
