19
gdb 109115	3.14373	1.23297	0.90462	0.3062	79.11	-0.2196	0.0017	0.2213	1280.6071	0.160794	-415.412517	-415.403	-415.402056	-415.447627	33.716	
C	-0.0708664437	 1.4575779711	-0.0121655928	-0.351337
N	 0.0003057136	 0.0114220713	 0.0155911583	-0.105317
C	 0.0173974921	-0.7840467642	-1.1280323887	 0.338853
N	-0.0282732971	-0.3057556069	-2.305817237	-0.555478
C	 0.0971948373	-2.2040731285	-0.5699986262	-0.274848
N	 0.1185428307	-2.0751393946	 0.8895113612	-0.316638
C	 0.0618886953	-0.8180712351	 1.1347327023	 0.351603
C	 0.0595486089	-0.2331985415	 2.5270905232	-0.270792
N	 0.1276352794	-1.2020199528	 3.6102380315	-0.485638
H	 0.8064456096	 1.9122053991	 0.4603487477	 0.132399
H	-0.1034907125	 1.754339809	-1.0616354448	 0.17787
H	-0.9715493458	 1.8254148022	 0.4909696059	 0.132402
H	-0.0050822954	-1.0503009486	-2.9999267412	 0.220181
H	-0.7617167817	-2.8041711333	-0.893502318	 0.136196
H	 0.9975234701	-2.7184399835	-0.9268279557	 0.136192
H	 0.9014962364	 0.4663303235	 2.6168246796	 0.129256
H	-0.8429516287	 0.3806087933	 2.6497458201	 0.129276
H	-0.6437380065	-1.8561016891	 3.5023141403	 0.237934
H	 0.956023818	-1.7760585513	 3.4734015943	 0.237887
