17
gdb 81613	4.02463	0.936	0.90117	1.4588	73.85	-0.2546	0.0467	0.3013	1316.7226	0.134395	-421.712628	-421.704446	-421.703502	-421.74599	31.568	
O	-0.0193909624	 1.4580645482	-0.188496305	-0.443506
C	-0.0279260677	 0.0732331028	-0.1941059697	 0.185683
C	-0.0755672539	-0.6668553313	 1.1771857699	-0.010558
O	-1.4577354311	-0.124283084	 1.3398582413	-0.340285
C	-1.4027299751	-0.6517422805	-0.0534313573	-0.043413
C	-0.7026531097	-1.9137232678	 0.5087981128	 0.040417
C	 0.0954397048	-2.886843454	-0.3668002674	-0.409856
C	 0.9633529027	-3.7462468591	 0.4316329137	 0.307812
C	 1.669462177	-4.4376917027	 1.1153040856	-0.449046
H	-0.6533240386	 1.7088355115	 0.499939537	 0.288815
H	 0.6755299525	-0.2697431817	-0.9529777033	 0.0894
H	 0.5900963634	-0.5985549043	 2.0375027377	 0.103643
H	-2.3094024611	-0.5626146049	-0.6533601808	 0.098538
H	-1.3478792028	-2.4471696665	 1.2088197259	 0.105107
H	-0.6123887843	-3.5069629371	-0.9322640234	 0.139074
H	 0.6958062962	-2.3590428421	-1.115152282	 0.138016
H	 2.29711138	-5.0559502765	 1.7080281751	 0.20016
