19
gdb 61311	5.41677	0.72417	0.67566	3.5783	78.45	-0.2519	0.0535	0.3054	1644.5069	0.156575	-422.965971	-422.956267	-422.955323	-423.001172	35.498	
O	 0.455810929	 1.3092087341	 0.0921480066	-0.441157
C	 0.0624849528	-0.0459951017	 0.0174699478	 0.148705
C	 0.6246176363	-0.6107268903	-1.2991266728	-0.359191
C	 0.0675433968	 0.0268291919	-2.4848809282	 0.311794
C	-0.4065901707	 0.5348560338	-3.4649841082	-0.440858
C	 0.5826120836	-0.8355932732	 1.2329067688	-0.258841
C	-0.126189066	-0.4354385278	 2.5073278852	 0.074528
C	 0.5905293643	-0.0331225433	 3.723600319	-0.177229
O	-0.0227550922	 0.952277012	 2.8861082303	-0.243383
H	 0.3168057038	 1.6033733017	 1.0018451011	 0.299183
H	-1.0374733226	-0.1323649718	-0.0176285388	 0.073586
H	 1.7145462656	-0.4843803159	-1.284754944	 0.133788
H	 0.4258325793	-1.6891658907	-1.337093762	 0.120816
H	-0.8179362332	 0.9964872688	-4.3278257656	 0.191702
H	 0.4359079825	-1.9117216864	 1.0796616647	 0.104031
H	 1.6595984436	-0.6536326063	 1.3242881191	 0.109575
H	-1.1373378965	-0.8277394239	 2.6236550177	 0.104965
H	 0.1232541957	-0.1579709419	 4.6985668817	 0.124116
H	 1.6792554878	-0.0327298092	 3.7242619077	 0.12387
