20
gdb 107349	3.25841	1.16133	0.9732	1.801	78.83	-0.2473	-0.0247	0.2226	1266.5974	0.171011	-403.166742	-403.158092	-403.157148	-403.200321	33.059	
C	 0.2165069142	 1.4493515975	 0.3018719035	-0.383019
C	-0.2495344778	 0.0739836577	-0.1909491567	-0.254043
C	 0.5714434112	-0.4505950539	-1.3471467961	 0.339919
C	 0.5170535512	 0.2536870531	-2.6931113336	-0.399883
C	 0.937901628	-0.7989892328	-3.7313730715	 0.372944
O	 1.225490999	-0.5740967971	-4.8767374464	-0.297851
C	 0.9213271514	-2.1869040586	-3.0693188126	-0.347921
C	 0.8277180485	-1.9079525743	-1.5862548742	-0.077749
N	 1.8681178369	-1.0546475475	-0.989587269	-0.369382
H	 1.2682503235	 1.4110699423	 0.6016233113	 0.131412
H	 0.1138709386	 2.2135575173	-0.4759595684	 0.114888
H	-0.3711017343	 1.7757907127	 1.1649208353	 0.114358
H	-0.1845290636	-0.6483402715	 0.6297543294	 0.107373
H	-1.304165684	 0.1208868343	-0.4930917999	 0.093007
H	-0.5028288078	 0.5851845345	-2.9315309104	 0.131685
H	 1.1599883842	 1.1366487377	-2.7684027718	 0.134162
H	 0.0428888827	-2.735872713	-3.4338430448	 0.134885
H	 1.8023668722	-2.7642273061	-3.3686939178	 0.135161
H	 0.4300471825	-2.6725634672	-0.9253416222	 0.094347
H	 2.5945425235	-0.8294985552	-1.667769144	 0.225708
