23
gdb 98257	2.66567	0.95463	0.83051	2.9531	82.37	-0.2607	-0.0233	0.2374	1515.6475	0.202273	-425.454406	-425.443185	-425.44224	-425.491364	40.444	
C	-0.0421730678	 1.4949452314	-0.0798329337	-0.409674
C	 0.0926436259	-0.0324309164	-0.0331002944	 0.058443
C	 0.9344503842	-0.5273024294	-1.2196465395	-0.408401
C	 0.6835015122	-0.5315965018	 1.3100280259	-0.071169
C	-0.0973833922	-0.0452851831	 2.5494718318	-0.410116
C	 0.697407894	-2.0523595454	 1.3550311788	 0.368291
O	-0.2865394069	-2.7252326303	 1.1201444867	-0.349236
C	 1.9907079449	-2.7529706103	 1.7410803046	-0.140027
O	 1.8254545986	-4.1351953111	 1.8169483109	-0.420415
H	 0.9279794222	 1.983513493	 0.0737538126	 0.111577
H	-0.4175896897	 1.811785771	-1.0581516944	 0.116342
H	-0.7344895472	 1.875561639	 0.6752552964	 0.11823
H	-0.907197032	-0.4757706028	-0.1175653803	 0.09771
H	 1.9561944734	-0.1310423572	-1.1701279631	 0.111026
H	 0.9952594286	-1.6194405087	-1.2509556527	 0.125405
H	 0.4994160886	-0.1964649607	-2.1677724171	 0.117158
H	 1.7209488095	-0.1774698256	 1.3915139504	 0.075171
H	-0.0396246535	 1.0405498462	 2.6490055921	 0.126203
H	-1.1489516525	-0.3375105171	 2.4751549481	 0.139118
H	 0.307943304	-0.4824530249	 3.4678893693	 0.120252
H	 2.7541482698	-2.4728291179	 0.9936712492	 0.115985
H	 2.3396032338	-2.3340530014	 2.7003125785	 0.114788
H	 0.9010795722	-4.2869103664	 1.55916977	 0.293339
