15
gdb 48182	5.11275	0.65669	0.58618	1.6567	70.1	-0.258	-0.1015	0.1565	1763.0197	0.107205	-457.717712	-457.707847	-457.706902	-457.754123	32.913	
O	-0.8489089957	 1.4895059923	 0.330520231	-0.216368
C	 0.1361955299	 1.0307099339	-0.1859690413	 0.079713
C	 1.4361578817	 1.822976839	-0.3756447973	 0.262649
O	 2.3765156419	 1.2867229963	-0.9032777951	-0.246374
C	 1.4123595117	 3.2493078042	 0.1350443347	-0.150719
O	 2.6475672818	 3.8547255942	-0.097968425	-0.22969
C	 2.6832417931	 5.1970238835	 0.3607704755	-0.20592
C	 3.9910821314	 5.7764149105	 0.0929222243	 0.282048
C	 5.0595780995	 6.282400864	-0.1146071564	-0.404749
H	 0.2034560187	-0.0066999556	-0.5754301974	 0.115739
H	 0.5789708377	 3.7773728414	-0.3626097034	 0.129252
H	 1.1462010173	 3.2244693152	 1.2072637453	 0.12925
H	 1.9008533862	 5.7931964258	-0.138573125	 0.124894
H	 2.4707725877	 5.2377621155	 1.4424806563	 0.124877
H	 6.0080570573	 6.7218779298	-0.3027770661	 0.2054
