17
gdb 39715	3.51051	1.69108	1.48633	2.4071	75.68	-0.2167	-0.0043	0.2124	916.6915	0.138513	-380.789749	-380.783297	-380.782353	-380.820287	26.981	
C	-0.1034067597	 1.5098376985	-0.0062374284	-0.315562
N	 1.1596301697	 0.7354690719	 0.0753697596	-0.370733
C	-0.1168197967	 0.0354925818	 0.0129211471	 0.413874
C	-0.4731824879	-0.9932267802	 1.0488892177	-0.139531
C	-1.7189327463	-1.769920631	 0.7027057518	-0.074524
C	-2.6775574261	-1.2123953215	-0.2957080752	-0.081545
C	-1.9899696969	-0.8211018128	-1.369082631	-0.080218
C	-0.5202950162	-0.99676296	-1.0652276817	-0.182912
N	-0.4497531512	-2.0948440811	 0.0121641306	-0.12924
H	-0.3475993492	 2.0767622011	 0.888111608	 0.120523
H	-0.3502111732	 2.011175668	-0.9393234821	 0.110574
H	 1.6192561437	 0.7176566197	-0.8326478492	 0.231125
H	 0.0215372534	-1.0901382571	 2.0099953155	 0.105545
H	-2.0470404002	-2.5067559068	 1.4302729534	 0.095703
H	-3.7442547916	-1.1388190839	-0.1311129102	 0.108377
H	-2.3733367458	-0.3219746957	-2.249474729	 0.107775
H	 0.1615949542	-1.1461082211	-1.903758217	 0.080768
