14
gdb 4597	5.68818	1.56428	1.23628	6.0464	67.72	-0.2308	-0.0556	0.1753	929.7967	0.109199	-378.792315	-378.785409	-378.784465	-378.823658	25.344	
C	-0.0104977714	 1.5544157062	 0.0060804257	-0.499199
C	-0.027846675	 0.050667639	 0.0098124473	 0.202781
C	-1.15907268	-0.6904287449	-0.1555655626	-0.024392
N	-1.0914983875	-2.0429072279	-0.1392724847	-0.336211
C	 0.1021684194	-2.7837483619	 0.0421737093	 0.442207
O	 0.0603043524	-3.9937745734	 0.0415693288	-0.382352
N	 1.251441097	-2.0210144666	 0.2099574044	-0.316866
C	 1.162806225	-0.7214219319	 0.1907224115	-0.013966
H	 0.6293473283	 1.9490158527	-0.7913806003	 0.139283
H	-1.0150527683	 1.9593460832	-0.1451475018	 0.126952
H	 0.3695831014	 1.9560934999	 0.9522221201	 0.139302
H	-2.1423077763	-0.2558902958	-0.304202738	 0.135821
H	-1.922151797	-2.6048803887	-0.2604703139	 0.270145
H	 2.102370582	-0.1805723201	 0.3281973541	 0.116495
