20
gdb 92098	2.83521	1.41519	1.04127	1.7329	80.45	-0.2235	0.0039	0.2274	1167.821	0.172854	-403.117627	-403.109618	-403.108673	-403.149855	32.124	
O	-0.0468139031	 1.470826039	-0.1135102714	-0.435886
C	 0.0230364311	 0.0518589154	 0.0473532256	 0.094103
C	-1.378377257	-0.5539081688	 0.2139653466	-0.265465
C	-1.310016648	-2.0183020292	 0.58752011	 0.019188
C	-2.2665064004	-3.022741547	 0.0453751487	-0.26803
N	-0.8693280789	-3.0155663199	-0.3868577434	-0.075993
C	-0.5922655035	-2.5504351564	-1.7509586825	-0.214099
C	 0.5908599474	-1.6115375916	-1.8330813766	-0.067605
C	 0.8437768873	-0.5457573871	-1.0708107031	-0.065931
H	-0.4066297173	 1.6402715205	-0.9915315993	 0.274939
H	 0.5708023871	-0.0774785396	 0.991704507	 0.097835
H	-1.8995673489	 0.0070271211	 0.9969954399	 0.109952
H	-1.9489641163	-0.4084943845	-0.7105462164	 0.090465
H	-0.8996370608	-2.19527047	 1.5821318968	 0.089178
H	-2.5784619016	-3.8768095985	 0.6407560698	 0.114804
H	-3.0176113357	-2.6633663598	-0.6578682633	 0.104831
H	-0.3864013036	-3.4397847194	-2.3562532802	 0.109821
H	-1.4717564684	-2.072240189	-2.2161516332	 0.097303
H	 1.3110950732	-1.8484423471	-2.6129688326	 0.095052
H	 1.7555023375	 0.0176044718	-1.2629204124	 0.09554
