17
gdb 128384	2.77897	1.26905	0.88293	5.1277	72.74	-0.2199	-0.0091	0.2108	1298.789	0.136455	-451.276537	-451.267544	-451.2666	-451.310542	32.133	
C	-0.0534898465	 1.4213984444	 0.0226651536	-0.323112
N	 0.0122706733	-0.0347204562	 0.0920191516	-0.397625
C	-1.174160485	-0.7319625739	 0.0296863347	 0.334466
N	-2.3667965832	-0.2041340439	 0.0509030123	-0.179754
O	-3.2437227804	-1.270462934	 0.0237800347	-0.187891
N	-2.5685035792	-2.4743340327	-0.0153272171	-0.179739
C	-1.3014495512	-2.1644978968	-0.0131530994	 0.334446
N	-0.2572125101	-3.0594332018	-0.0927663105	-0.397627
C	-0.5769854072	-4.4813905669	-0.0205545971	-0.323112
H	 0.9580401034	 1.8239313554	 0.1066210817	 0.124544
H	-0.5151871911	 1.7855404956	-0.9049878107	 0.132876
H	-0.6502878063	 1.7910164914	 0.859815221	 0.156709
H	 0.7251486721	-0.4415425435	-0.4997992033	 0.245845
H	 0.5250298696	-2.785201528	 0.4876194321	 0.245843
H	-1.0812274795	-4.7600009427	 0.9145491637	 0.132876
H	-1.2422787582	-4.7390559054	-0.8479585812	 0.15671
H	 0.3465657994	-5.0554365009	-0.1195462061	 0.124544
