23
gdb 116893	4.18574	0.50358	0.46262	1.5121	92.87	-0.2412	0.0597	0.3009	2439.1046	0.202995	-388.27241	-388.260611	-388.259667	-388.311612	40.843	
C	-0.0251791971	 1.5723874425	-0.0171636865	-0.381388
C	-0.0100005448	 0.0426511949	-0.0080336689	-0.151513
C	 0.7267348714	-0.5301035666	 1.220046008	-0.335934
C	 0.7552682497	-1.988799954	 1.2500613364	 0.020004
C	 0.7741035559	-3.1938712587	 1.2449845647	 0.102857
C	 0.7846875039	-4.6557854246	 1.2710186252	-0.137739
C	 1.5713755841	-5.2028752927	 2.4778336687	-0.381125
C	-0.6554686329	-5.1941877122	 1.2473949344	-0.067391
O	-0.586516881	-6.607023701	 1.1310318858	-0.420479
H	 0.9919351188	 1.9797846581	-0.0345694048	 0.11549
H	-0.5526186766	 1.957876886	-0.8948733631	 0.113745
H	-0.5250001035	 1.9704613099	 0.8731075349	 0.114883
H	-1.0348837598	-0.3451046772	-0.0179587783	 0.105888
H	 0.4709293525	-0.3358770182	-0.916902846	 0.10812
H	 1.7547257464	-0.1425561386	 1.2366872279	 0.123587
H	 0.2507290567	-0.1510042553	 2.1348799909	 0.121808
H	 1.2666960317	-5.0233982584	 0.3543986337	 0.108841
H	 1.5419164871	-6.2943874507	 2.4744181685	 0.132365
H	 2.6125904194	-4.872554631	 2.4427122672	 0.117775
H	 1.1337531477	-4.8431025165	 3.4146662705	 0.115808
H	-1.1703191155	-4.8879962568	 2.1713930847	 0.091857
H	-1.1949777334	-4.7468657341	 0.3998966409	 0.09407
H	-1.4806433607	-6.957108565	 1.1730975854	 0.288473
