19
gdb 46362	3.31366	1.09982	0.87147	1.0797	76.81	-0.252	-0.0308	0.2212	1330.6416	0.158677	-423.008875	-423.000379	-422.999435	-423.043072	31.143	
O	-0.1054267367	-0.0017064886	-0.2017780428	-0.27336
C	-0.0831377059	 1.1757769483	-0.0135041943	 0.333901
C	-1.0854633145	 2.2532562136	 0.4187707833	-0.191154
O	-0.0276051719	 3.2314413549	 0.3874121827	-0.294057
C	 0.9824896357	 2.2840707665	-0.0563157568	-0.013993
C	 2.1631874486	 2.1520345265	 0.8803702486	 0.043109
C	 3.3068699952	 1.1790100681	 0.4726805253	-0.230852
C	 4.3270068791	 2.2196523847	 1.0098253433	-0.211896
C	 3.2132355349	 3.2993162795	 0.9303387078	-0.23276
H	-1.8850760884	 2.4587434631	-0.3049699278	 0.131591
H	-1.5247745375	 2.1228770342	 1.4159132314	 0.133812
H	 1.3223293068	 2.5179110852	-1.0768397482	 0.098809
H	 1.8004947417	 1.9229318322	 1.8880147881	 0.07536
H	 3.2994658079	 0.1810145029	 0.9146611756	 0.110174
H	 3.3714305997	 1.0735417281	-0.6150546655	 0.105247
H	 4.6146689958	 2.0085425696	 2.0435756796	 0.106158
H	 5.2349618834	 2.3851019543	 0.4257981539	 0.100488
H	 3.2461137619	 3.8478841701	-0.0164864064	 0.10314
H	 3.1318019043	 4.0201855269	 1.746013452	 0.106285
