18
gdb 94355	3.7044	1.03736	0.91348	2.1717	74.37	-0.258	-0.0082	0.2498	1292.2735	0.145918	-439.056644	-439.047769	-439.046824	-439.09074	31.925	
C	-0.1125313241	 1.5984740115	 0.0340540584	-0.409848
C	 0.1400878209	 0.1091503155	-0.0589440309	 0.095801
O	 1.4174172956	-0.2094545192	-0.6768305011	-0.294018
C	 1.8166811753	-1.0658032513	 0.4114301344	-0.141268
C	 0.5688840368	-0.6584970938	 1.1942392021	 0.245483
C	 0.4378006	-0.3201125102	 2.6445946944	-0.300819
N	-0.2699726357	-1.443402471	 2.0593747277	-0.114612
C	-0.0748458854	-2.7652592029	 2.4298068793	 0.132773
O	 0.100665384	-3.1441997453	 3.5606613501	-0.279281
H	 0.6850850656	 2.095254659	 0.5938339771	 0.124181
H	-0.1555045317	 2.0347104383	-0.9683709478	 0.135807
H	-1.0694690329	 1.7934455362	 0.5300439274	 0.124963
H	-0.6805024536	-0.3943450296	-0.5896239658	 0.088022
H	 1.8583600991	-2.1219545304	 0.1140906986	 0.111712
H	 2.7822003598	-0.7743478022	 0.8408510049	 0.118694
H	 1.2712624178	-0.553540036	 3.3033286342	 0.14037
H	-0.1782384616	 0.5200157833	 2.9533390192	 0.132439
H	-0.1678938299	-3.4502268918	 1.5657658977	 0.0896
