17
gdb 21150	3.18485	1.88472	1.20766	3.7333	71.85	-0.1872	0.0481	0.2353	995.9116	0.143514	-360.059695	-360.051236	-360.050291	-360.093054	30.035	
C	-0.0083105879	 1.4195839871	 0.2497105598	-0.340068
N	 0.0386889122	 0.0170697781	-0.1282127963	-0.383045
C	-1.102465197	-0.7595401059	 0.0091804609	 0.372669
C	-1.2425248997	-2.1417862299	 0.040273832	 0.103535
C	-0.1506939469	-3.1643511674	-0.0208912532	-0.525714
C	-2.6398418066	-2.330925088	 0.131203239	-0.065526
N	-3.3242917556	-1.1946163063	 0.1560405078	-0.258771
N	-2.3549350164	-0.2404199517	 0.0855781144	-0.265344
H	 0.9930925217	 1.8449349884	 0.1581397798	 0.135072
H	-0.6569395957	 1.9739084246	-0.438772991	 0.132453
H	-0.3689682809	 1.5915660979	 1.2763906158	 0.119696
H	 0.8632284051	-0.4626910973	 0.2023499764	 0.245514
H	 0.574788941	-3.0553134379	 0.797213029	 0.111843
H	-0.565725	-4.1731741491	 0.0566926766	 0.129289
H	 0.4152907328	-3.1175022876	-0.9600720865	 0.124062
H	-3.1690056045	-3.2732382005	 0.1787294406	 0.099573
H	-2.6250420215	 0.7267253055	 0.0777045946	 0.264762
