20
gdb 103340	2.84792	1.382	1.10962	1.9536	75.4	-0.2404	0.0525	0.2929	1157.5828	0.170759	-440.212148	-440.203522	-440.202578	-440.245072	34.269	
C	 0.0417658376	 1.5681014582	-0.1674360969	-0.406524
C	-0.0268955361	 0.0679322071	 0.15087701	-0.250814
C	-1.4354537847	-0.5081620292	 0.0687996501	 0.470074
O	-2.2767180518	 0.0808031761	 1.0552199781	-0.503209
C	-2.0686240119	-0.794609156	-1.3428238271	-0.172849
N	-1.0490869304	-1.9108534727	-1.4476194101	-0.327689
C	-1.6229789439	-2.048609478	-0.0500376952	-0.153588
C	-3.0527513015	-1.817636943	-0.6656353709	 0.168666
O	-4.1779428658	-1.466174531	 0.061246758	-0.442083
H	 1.0749450648	 1.9234629803	-0.1202422348	 0.126136
H	-0.336868308	 1.7818267842	-1.1725994991	 0.124883
H	-0.527616537	 2.1796677484	 0.5445673052	 0.102679
H	 0.6073607984	-0.4848579503	-0.5430661475	 0.137697
H	 0.3515872425	-0.110134306	 1.1649329861	 0.101003
H	-2.2031515734	 1.0377468048	 0.9807475974	 0.288588
H	-2.2457484881	-0.1006441263	-2.1674571438	 0.074555
H	-1.4334097348	-2.6562520341	-2.0355632278	 0.215087
H	-1.2761582632	-2.8182897062	 0.642313077	 0.079673
H	-3.3463624462	-2.6237789408	-1.3469048086	 0.07742
H	-3.8943732967	-0.7778982755	 0.6804640299	 0.290295
