17
gdb 68724	2.4678	1.657	1.30237	2.0169	79.37	-0.2374	0.0209	0.2584	1034.9196	0.133777	-384.605893	-384.597717	-384.596773	-384.638254	32.007	
C	 0.0176168367	 1.5259189479	 0.0232011326	-0.492736
C	-0.0908229154	 0.0379842976	 0.1004806115	 0.317028
O	 1.0638695935	-0.7413839453	-0.2314597719	-0.327199
C	 0.4834141196	-0.939211844	 1.0784487056	 0.20899
C	 1.3001549085	-0.7302204444	 2.2247246045	 0.247997
C	 1.966086244	-0.5736582603	 3.2141625217	-0.411232
C	-0.7320774393	-1.8357475597	 0.9380609088	-0.166234
C	-1.9751569702	-1.0549473546	 1.2766580466	-0.293132
C	-1.3224941113	-0.836187361	-0.0647009032	-0.130445
H	 0.947821378	 1.8639564787	 0.4861695133	 0.14355
H	 0.0136942051	 1.8573095163	-1.0211974855	 0.134033
H	-0.8271066501	 2.0006320303	 0.531476444	 0.12892
H	 2.5615162419	-0.4350124727	 4.0823915484	 0.192533
H	-0.7099573952	-2.9151423362	 0.8630497489	 0.105646
H	-2.9022145163	-1.6201348136	 1.2630386775	 0.120105
H	-1.9402265007	-0.28004116	 2.0373203338	 0.120064
H	-1.8123945387	-1.0655946589	-1.0026054064	 0.102112
