16
gdb 15954	3.24737	1.86306	1.37041	1.1651	70.51	-0.2331	0.0365	0.2696	917.1171	0.128926	-346.530328	-346.522683	-346.521738	-346.562405	28.859	
C	-0.0763380577	-1.1322913785	-0.3572434454	-0.463943
C	-0.0653191181	 0.0514253231	-0.1459002839	 0.347124
C	-0.03473353	 1.4758630109	 0.1053789694	-0.334667
C	 0.0228607108	 1.9727867266	 1.5791970361	-0.083664
O	 1.1968062205	 2.7660439274	 1.3103764408	-0.302042
C	 1.3113310501	 2.2154662182	-0.000337213	 0.472613
C	 2.6049544061	 1.7310193773	-0.5572614495	-0.336159
C	 1.9134430476	 2.961769895	-1.137793594	-0.337845
H	-0.092075952	-2.178219524	-0.5401225801	 0.20018
H	-0.821459045	 1.9820067658	-0.4625871049	 0.114225
H	-0.8206122495	 2.5858608285	 1.9110111635	 0.112183
H	 0.219231729	 1.1788087428	 2.3077089709	 0.114933
H	 3.491743771	 1.8958912575	 0.0450404521	 0.125704
H	 2.6007049973	 0.8100547443	-1.1309195052	 0.126423
H	 1.4468992331	 2.8861374737	-2.1149777032	 0.118215
H	 2.3478579366	 3.9304297613	-0.9140470535	 0.126718
