15
gdb 50887	4.81257	0.68117	0.65109	3.0511	72.19	-0.2669	-0.0111	0.2558	1665.1656	0.11296	-450.177654	-450.168281	-450.167337	-450.213408	31.928	
N	 0.9237781728	-0.0219161521	-0.0019147084	-0.470419
C	-0.2362786412	 0.4167853077	-0.2713065608	 0.108687
N	-1.3471051573	-0.1551318684	 0.329449846	-0.358593
C	-2.6382782859	 0.2903462184	 0.0992115457	 0.546644
O	-2.9007520831	 1.2180894958	-0.6407271318	-0.388067
N	-3.5972448038	-0.3979596697	 0.8170969839	-0.377405
C	-4.9990366768	-0.1487321847	 0.5506879605	-0.280248
C	-5.648380126	-1.2527140681	-0.1718066106	 0.252558
N	-6.1504319554	-2.1411307141	-0.7131156986	-0.294292
H	 1.6280471258	 0.4968104427	-0.5224416673	 0.235543
H	-0.5092605554	 1.2277707698	-0.9484958848	 0.145681
H	-1.1551218867	-0.9058977454	 0.9774137435	 0.258551
H	-3.3554258669	-1.2665587691	 1.2672351343	 0.257721
H	-5.5490363243	 0.0316920345	 1.4809911659	 0.161005
H	-5.0436510958	 0.7618007626	-0.0537101076	 0.202634
