19
gdb 68674	2.3436	1.77674	1.40628	3.2718	74.9	-0.2222	-0.0188	0.2033	1011.0929	0.15983	-423.029169	-423.021086	-423.020142	-423.061424	31.41	
C	-0.0155552219	 1.5865840884	 0.0317948952	-0.478608
C	 0.0284777277	 0.0739410953	-0.0431847908	 0.179456
C	 0.6987337896	-0.6706026162	-1.252295721	-0.314759
C	-0.3392036684	-1.8130077473	-1.0390525601	 0.003036
O	 0.0215726323	-2.6972705145	 0.0199981902	-0.274925
C	 0.8518040805	-2.0914686386	 1.0116619765	-0.074927
C	 0.5117091902	-0.6093894224	 1.2676973087	-0.269009
C	-1.2419775396	-0.6981457922	-0.4555075718	 0.407362
O	-2.4118580567	-0.4486525442	-0.4499131279	-0.321689
H	 0.9813126068	 2.0041722532	 0.2105436779	 0.117255
H	-0.4054074051	 2.0151452707	-0.8965458631	 0.123807
H	-0.669067794	 1.9133904689	 0.8474180995	 0.132748
H	 0.5177105495	-0.152651319	-2.197865806	 0.11457
H	 1.7561212767	-0.9281251535	-1.1736305751	 0.11262
H	-0.6790159403	-2.4207780681	-1.8783308225	 0.096721
H	 0.7257201997	-2.6909144928	 1.9171711554	 0.117606
H	 1.9041750458	-2.1799161491	 0.708578825	 0.101231
H	 1.4035037995	-0.0951175659	 1.6470045965	 0.105368
H	-0.2673372024	-0.5072412327	 2.0311686234	 0.122138
