16
gdb 34946	3.64557	1.53942	1.33351	1.634	73.43	-0.2302	0.0484	0.2786	956.7845	0.12562	-400.642331	-400.635679	-400.634735	-400.673246	27.407	
C	-0.0363105205	-1.2033798286	-0.0618170804	-0.454453
C	 0.0043930916	-0.006743382	 0.0431655905	 0.336302
C	 0.0451089189	 1.440583889	 0.0919128683	-0.161222
C	-0.3287935342	 2.0897723615	 1.4494356476	-0.087175
N	 0.682819554	 1.4349473827	 2.3464099126	-0.31414
C	 1.6501581576	 2.3217659769	 1.6552856902	-0.054977
C	 0.6083558137	 3.3937959141	 1.3134144441	 0.073616
O	 1.0548649865	 3.5217760304	-0.0390768771	-0.284396
C	 1.4462284221	 2.125577123	 0.094337956	 0.057065
H	-0.0703314514	-2.2620647013	-0.1328653553	 0.190403
H	-0.5270054781	 1.871942693	-0.7345429867	 0.112875
H	-1.3703733836	 2.0968221866	 1.7630304955	 0.085233
H	 0.561031051	 1.794864687	 3.2927975026	 0.221003
H	 2.6499638159	 2.4795133193	 2.0547849222	 0.089397
H	 0.3774315045	 4.3203059893	 1.8385296428	 0.091847
H	 2.212421432	 1.798621099	-0.6043438228	 0.098622
