17
gdb 54940	4.2957	0.84867	0.83549	5.9225	71.76	-0.241	0.0105	0.2515	1397.6455	0.135896	-455.18506	-455.175732	-455.174788	-455.221295	32.039	
N	 0.3613969902	 0.9934007656	 0.3329522188	-0.531113
C	-0.1664476845	 0.1296247795	-0.579297436	 0.412833
O	 0.3985513147	-0.1571912109	-1.6173640821	-0.359239
C	-1.5043292563	-0.4792529953	-0.1899765713	-0.129136
C	-2.3779837847	-0.9468661126	-1.3892081817	-0.190392
N	-2.3445016426	-2.3045319567	-0.8345968946	-0.039556
C	-1.4247274409	-1.9823223361	 0.2517866273	-0.175588
C	-2.6707455491	-3.5161007096	-1.3364145631	 0.134457
O	-2.373091638	-4.5734617725	-0.818967467	-0.330394
H	 1.2822037427	 1.3642527059	 0.162819902	 0.266622
H	-0.0867816871	 1.1946674628	 1.2091515413	 0.261859
H	-2.0442021578	 0.141754258	 0.5269078994	 0.084384
H	-3.3768302056	-0.5035825471	-1.4473559817	 0.11439
H	-1.8572729314	-0.8453568311	-2.3457154288	 0.147078
H	-0.4383152042	-2.4418122892	 0.1318490887	 0.139745
H	-1.8092096201	-2.2054575834	 1.2511703346	 0.123992
H	-3.2626011251	-3.4324950373	-2.2713147357	 0.070058
