20
gdb 107912	3.57313	1.16133	1.13408	1.9979	78.47	-0.2376	0.0749	0.3125	1183.3674	0.171067	-403.079864	-403.071419	-403.070475	-403.112854	32.738	
C	-0.0550597505	 1.5711842897	-0.0768582722	-0.419832
C	 0.100971495	 0.0616429247	-0.085583567	 0.095543
C	 0.7915025022	-0.7084446078	-1.2349638047	-0.105554
C	 2.2065384423	-0.0774447938	-1.3005625775	-0.293535
C	 2.3946052491	-0.6205643995	 0.1171722063	 0.314855
C	 3.6559739501	-0.6810459652	 0.9232563689	-0.184003
O	 4.7234721751	-1.2943414631	 0.2121543916	-0.412855
C	 1.332920926	-1.64380671	-0.0868253321	-0.111421
N	 1.0931646113	-0.5357346432	 0.8796595051	-0.197878
H	 0.8888676473	 2.0901661414	-0.258781382	 0.121932
H	-0.7730387653	 1.8873533805	-0.841720433	 0.116731
H	-0.4327465066	 1.8992562263	 0.8969699275	 0.12822
H	-0.860027519	-0.4098742141	 0.1487213559	 0.080319
H	 0.2637473575	-1.002581369	-2.1408101949	 0.070392
H	 2.8568527799	-0.6194741344	-1.9909469272	 0.1101
H	 2.2954062536	 0.9974774277	-1.4861739322	 0.094847
H	 4.0017623206	 0.3327745298	 1.154892948	 0.115027
H	 3.4498681588	-1.1830052261	 1.8794434113	 0.102582
H	 4.449251779	-2.1935893075	 0.0037212051	 0.280702
H	 1.2382432437	-2.6944651564	 0.157655313	 0.093828
