20
gdb 38931	2.7577	1.98842	1.43954	1.6802	76.94	-0.2075	0.0665	0.274	954.1732	0.174775	-403.102375	-403.095565	-403.094621	-403.133478	28.257	
C	 0.0443142	 1.3416424756	-0.4853553888	-0.190162
C	 1.5024563345	 1.4990485515	 0.0407545835	 0.003082
C	 1.8263132396	 2.6461864491	 1.0145560937	-0.241667
C	 1.5917135997	 2.2086676988	 2.4675835688	-0.07244
O	 0.4056784058	 1.4343534825	 2.58036945	-0.264213
C	 0.5606863887	 0.135365986	 2.0344215934	 0.094363
C	-0.6972936673	-0.2950360445	 1.248818623	-0.192413
N	-0.0056024548	-0.1038655882	-0.0665333689	-0.135934
C	 1.3042588968	 0.1037326814	 0.6676770168	-0.033613
H	-0.6845402924	 1.9732591024	 0.0346873031	 0.103827
H	-0.0876572999	 1.4673606378	-1.5643536992	 0.100854
H	 2.219945284	 1.4721394383	-0.7816356282	 0.080161
H	 2.8650964318	 2.9770768076	 0.9040167494	 0.097581
H	 1.1934395377	 3.5101507174	 0.7814213097	 0.10585
H	 2.454732416	 1.632384367	 2.8389765508	 0.089082
H	 1.4634532135	 3.0707543684	 3.1279285525	 0.108544
H	 0.9341761318	-0.5544346991	 2.8049694221	 0.065212
H	-0.9653933727	-1.3468285537	 1.3905122337	 0.104541
H	-1.581160189	 0.3292660425	 1.4094532681	 0.111521
H	 2.0813202864	-0.656466591	 0.5524895164	 0.065821
