15
gdb 52634	2.09707	1.07606	0.98626	3.9852	72.28	-0.2484	-0.0493	0.1991	1322.7456	0.106327	-457.738271	-457.727541	-457.726596	-457.776287	34.959	
C	 0.0172885769	 1.4651987577	-0.1025456156	-0.501388
C	 0.0107376144	 0.0118276299	-0.0686467825	 0.045819
C	 0.015701165	-1.1920313058	-0.0243236579	 0.089006
C	 0.0075115766	-2.6454202232	-0.0011353926	-0.021478
O	-1.2925254384	-3.2030153864	-0.2002750533	-0.447883
C	 0.8422184588	-3.1491128515	-1.2009790289	 0.146631
O	 1.9597506288	-3.5719538741	-1.1053855907	-0.227919
C	 0.5872061699	-3.2456239273	 1.3007356571	 0.15309
O	 1.0795509145	-2.6170509116	 2.1922377438	-0.231705
H	 0.9419383564	 1.8387915128	-0.5551419144	 0.163961
H	-0.8227074268	 1.8513646114	-0.6894470551	 0.156801
H	-0.0538570556	 1.8823828997	 0.9073190957	 0.163393
H	-1.9287760587	-2.6216759667	 0.231064021	 0.300077
H	 0.2878049403	-3.0810462514	-2.1598367571	 0.108408
H	 0.454222218	-4.3470883033	 1.3370131903	 0.103189
