19
gdb 102195	2.15096	1.18767	0.86591	4.2972	75.58	-0.2496	0.0268	0.2764	1346.7048	0.158943	-419.180346	-419.170607	-419.169663	-419.21567	34.589	
O	 0.007170762	 1.3012310289	 0.0483217417	-0.417344
C	-0.0316805784	-0.1131719961	 0.0631287563	-0.083273
C	-1.5067078828	-0.5388240698	-0.0013256926	-0.023989
C	-1.5902952066	-2.0710922394	-0.1958592092	-0.38373
C	-2.8628117933	-2.5269595177	-0.7498773269	 0.276843
N	-3.8641525042	-2.8869380669	-1.2008088041	-0.311376
C	-2.2590639769	 0.0107637685	 1.204541756	 0.033982
C	-3.4055779709	-0.6593895065	 1.8620225901	-0.26185
N	-2.1072858155	-0.5516836183	 2.559436491	-0.323276
H	 0.8885958968	 1.5881223258	 0.3024509676	 0.294858
H	 0.5113962976	-0.53257763	-0.7995041172	 0.089746
H	 0.4285588574	-0.5210903987	 0.9772160817	 0.096388
H	-1.9305559612	-0.0644762478	-0.8947318431	 0.117358
H	-0.7978609857	-2.3941054645	-0.8806793094	 0.156222
H	-1.4082501327	-2.6022698234	 0.7463201114	 0.144416
H	-2.2447467895	 1.096495238	 1.2127229048	 0.118294
H	-4.2035014516	-0.057921674	 2.2881944865	 0.124775
H	-3.7276342338	-1.6323670217	 1.5051523653	 0.131826
H	-1.6297543308	-1.4504081264	 2.52910534	 0.220129
