25
gdb 122183	3.63877	0.68724	0.66959	1.313	89.33	-0.2615	0.0795	0.3409	1822.9307	0.227964	-389.482669	-389.471998	-389.471054	-389.518863	39.539	
C	 0.0478292144	 1.6017931857	 0.1462597037	-0.446013
C	 0.0002247153	 0.0758366418	 0.0262220743	 0.368225
C	-1.4203251172	-0.4431758247	-0.2226672026	-0.263801
C	-2.0608205423	 0.0280345687	-1.5338883747	-0.175133
C	-3.4043528276	-0.6368974747	-1.8024555659	-0.071572
O	-3.9179891169	-0.1156297284	-3.019850237	-0.422786
C	 1.111009717	-0.4703102233	-0.9327898577	-0.245316
C	 2.0058124952	-0.7689152093	 0.2993763651	-0.213169
C	 0.7583670492	-0.612659759	 1.209127972	-0.261965
H	 1.060028594	 1.9480286263	 0.3808846534	 0.109923
H	-0.2573414552	 2.091152225	-0.7841893153	 0.117263
H	-0.6154315847	 1.9527752735	 0.9458402699	 0.108154
H	-1.3895755303	-1.5417027237	-0.2174117449	 0.083956
H	-2.0601019081	-0.1537082866	 0.6238165791	 0.088582
H	-2.2158747039	 1.112320186	-1.5251279652	 0.107997
H	-1.3947560621	-0.1863691194	-2.3788651357	 0.107301
H	-3.2735286585	-1.7302533013	-1.8614618655	 0.08152
H	-4.0920926266	-0.4389278612	-0.9632899442	 0.081819
H	-4.7676259827	-0.5322121654	-3.1902263443	 0.283804
H	 0.7943680666	-1.3851474129	-1.4434049304	 0.092452
H	 1.5028998651	 0.2227545451	-1.6825270301	 0.092132
H	 2.5163267375	-1.7344306049	 0.3194784237	 0.094499
H	 2.7515648264	 0.0112665775	 0.4732560841	 0.101503
H	 0.8731723364	-0.0285575922	 2.1269273745	 0.089789
H	 0.3138512689	-1.5783322628	 1.4693829037	 0.090835
