17
gdb 106269	3.0369	1.32236	1.12127	1.1742	68.88	-0.2296	0.0013	0.2309	1117.2375	0.133543	-458.914072	-458.90501	-458.904066	-458.948176	32.648	
C	-0.0482816419	 1.3702005701	 0.0529314768	-0.272513
O	-0.0561277056	-0.0486579312	-0.0648166074	-0.282819
C	-1.3015202499	-0.5956964633	-0.0070659314	 0.310952
C	-2.5031822508	-0.4697998159	-1.0369690654	-0.354906
C	-3.0193553825	-1.475251841	 0.0442757079	 0.286172
O	-4.2355243478	-2.1039904279	 0.0593441361	-0.464976
C	-1.5814197339	-2.1273088514	-0.0032707534	-0.350375
C	-2.4071698468	-0.514613498	 1.0709502141	 0.311855
O	-2.6822988724	-0.0120125337	 2.1199372423	-0.34766
H	 0.9985670386	 1.6780393793	 0.0532370944	 0.136344
H	-0.5614942568	 1.8418386651	-0.7959573088	 0.11837
H	-0.5252800846	 1.6929089875	 0.985931018	 0.142826
H	-3.0196225926	 0.4879297231	-1.1202086546	 0.112748
H	-2.2965352629	-0.9220132376	-2.008809582	 0.116981
H	-4.6217623012	-1.9879350687	 0.9355124409	 0.303513
H	-1.3520691455	-2.6270255091	-0.9463801311	 0.117381
H	-1.2475416833	-2.6971671373	 0.8653998837	 0.116106
