16
gdb 85622	3.52527	1.07431	0.8587	2.5502	80.23	-0.2606	-0.094	0.1666	1289.86	0.124511	-400.808283	-400.799937	-400.798992	-400.841837	30.295	
C	-0.1401107909	 1.5490989593	 0.0224691866	-0.399364
C	 0.0739463162	 0.0340171159	-0.0337239471	-0.111121
C	 0.8997103726	-0.4812757724	-1.231171925	-0.337221
C	 1.966142409	-1.3602217019	-0.5995656881	 0.194255
C	 1.921258556	-1.3609940246	 0.7436509199	-0.278469
C	 0.8198837639	-0.4834940057	 1.211253374	 0.405159
O	 0.554091661	-0.2123101704	 2.3575802004	-0.326849
C	 2.9027017657	-2.0767736973	-1.3942060289	 0.232253
N	 3.64896258	-2.6480606474	-2.0711764534	-0.315448
H	 0.8152625415	 2.0824641419	-0.0258219932	 0.12415
H	-0.763040022	 1.8916435445	-0.8085584452	 0.122238
H	-0.6290134056	 1.8178683196	 0.9621744557	 0.147455
H	-0.9054203717	-0.4605758877	-0.0250441162	 0.119591
H	 0.3073809366	-1.0486808388	-1.955922116	 0.139668
H	 1.372492393	 0.3356203045	-1.7891799364	 0.140794
H	 2.5843172647	-1.8920736596	 1.4132550427	 0.142907
