17
gdb 17548	4.48625	1.74869	1.60557	2.3683	66.98	-0.2412	0.0714	0.3127	843.5419	0.144086	-363.827821	-363.821296	-363.820352	-363.858422	26.172	
C	-0.6741822857	 1.2502973287	 0.0150195362	-0.238
O	 0.7586727396	 1.1980048012	 0.00070795	-0.294696
C	 0.0363241811	-0.0307206815	 0.0013620809	 0.472708
C	 0.1451653892	-0.9295324295	 1.2386244056	-0.300206
C	-0.3042358252	-2.2866409859	 0.7364972994	-0.033077
N	-1.5906400439	-2.231530154	 0.005797047	-0.340115
C	-0.3188039893	-2.2788680313	-0.7505013628	-0.033077
C	 0.1208113406	-0.916538415	-1.2471233435	-0.300206
H	-1.1191287195	 1.6126262927	 0.9411919278	 0.110354
H	-1.13715183	 1.6222424739	-0.8984195442	 0.110354
H	 1.1918531129	-0.977743031	 1.5629785548	 0.112024
H	-0.4515719177	-0.5572508876	 2.076126393	 0.109451
H	-0.058332153	-3.1810400416	 1.2992736213	 0.086502
H	-2.0119530945	-3.1572325757	 0.0050851138	 0.230006
H	-0.084064498	-3.1673099157	-1.3273062379	 0.086502
H	-0.4921824452	-0.5355838649	-2.0688354946	 0.109451
H	 1.1609381888	-0.9612482927	-1.5924088868	 0.112024
