20
gdb 78348	2.60174	1.4112	1.105	1.5716	80.22	-0.2222	0.0817	0.3039	1183.5577	0.169279	-403.073925	-403.065191	-403.064246	-403.106903	33.681	
C	 0.0087530161	 1.6086667682	-0.1165982451	-0.412843
C	 0.0437362446	 0.0947197832	 0.0256547438	-0.099621
C	 0.9841388926	-0.7123316705	-0.8962372013	-0.04276
C	 1.6675578249	-1.3483026409	 0.273115415	-0.16395
N	 2.3648531551	-0.3357020664	-0.5526879706	-0.10779
C	 3.3626873556	-0.9184034578	-1.4468742266	-0.316258
C	 0.7935059251	-0.5531814363	 1.2226684578	 0.463054
C	 1.0473402828	-0.0923918918	 2.5837126494	-0.262131
O	 0.100729678	-1.142904847	 2.3056372936	-0.287231
H	 1.0246859616	 2.01144159	-0.1282312336	 0.135215
H	-0.4904863493	 1.9041814102	-1.0458691516	 0.112407
H	-0.5393222577	 2.0692885998	 0.7122670061	 0.115516
H	-0.9633868305	-0.3356850258	-0.0024498252	 0.092003
H	 0.756391973	-1.1338066181	-1.8682451548	 0.093096
H	 2.0689611508	-2.3462659986	 0.4007232352	 0.101676
H	 3.0935724229	-1.918469403	-1.8269438529	 0.099283
H	 3.5036427663	-0.2530529894	-2.30444636	 0.125269
H	 4.3164992391	-1.0000076805	-0.9165232353	 0.125313
H	 1.9526316491	-0.4039356134	 3.1027916857	 0.114564
H	 0.6102106398	 0.8422613283	 2.9320574206	 0.11519
