21
gdb 62794	2.2356	1.7564	1.52538	2.9019	81.68	-0.228	-0.0036	0.2244	1026.1857	0.183287	-387.106648	-387.098254	-387.09731	-387.139041	33.423	
C	-0.0681039988	 1.5278927521	 0.0177465345	-0.445945
C	 0.0105342696	-0.00553138	-0.0518864206	 0.197278
C	-1.4202602972	-0.565522734	-0.0926160004	-0.445923
C	 0.9578266661	-0.5593676133	-1.1533334761	-0.050236
C	 1.2285114937	-2.0206977822	-0.6809779997	-0.248762
C	 1.9734294877	-1.3023259862	 0.4928756732	-0.128511
C	 2.3762872619	-0.244062781	-0.5872578017	-0.248764
C	 0.8067091911	-0.5834046784	 1.1542064212	 0.431552
O	 0.5416968827	-0.4736530895	 2.3224993548	-0.359896
H	 0.9134714966	 2.0078027387	 0.0138406928	 0.116357
H	-0.6369666065	 1.9195273695	-0.8327160355	 0.112587
H	-0.5795569782	 1.8304694807	 0.9364532057	 0.135349
H	-1.9701028048	-0.1453832538	-0.9419844474	 0.11259
H	-1.4518800242	-1.6543056271	-0.1784803415	 0.116364
H	-1.9507615802	-0.2914285289	 0.8242251946	 0.135338
H	 0.6943956178	-0.3346324351	-2.1874756464	 0.065623
H	 0.387695391	-2.6739823314	-0.4414116592	 0.105241
H	 1.9299539297	-2.5446956491	-1.3339101069	 0.107409
H	 2.6876123765	-1.7982168981	 1.1469773826	 0.07969
H	 3.1735271599	-0.6197814323	-1.2323617428	 0.107414
H	 2.6125483256	 0.7698647693	-0.2597279312	 0.105244
