17
gdb 14269	3.04499	2.71077	1.87469	2.2282	68.14	-0.2408	0.034	0.2748	757.7207	0.145351	-363.860219	-363.854006	-363.853061	-363.890251	25.13	
C	-0.0324554042	 1.3769852158	-0.2758947469	-0.250002
C	 1.4913639073	 1.5085098471	 0.0021751887	-0.027464
C	 1.3899735152	 0.2422717659	 0.8982832239	-0.250002
C	 0.0763711336	-0.1067649142	 0.1553485071	 0.129445
O	 0.2496041864	-1.0139953164	-0.9312488534	-0.234484
C	 1.2026822263	-0.7989105223	-1.877983148	 0.122558
N	 2.0700409431	 0.0975336675	-2.0624056044	-0.262398
C	 2.3331530591	 1.2685499187	-1.249483204	-0.158892
H	-0.6369388177	 1.945112263	 0.4359115517	 0.104982
H	-0.3920508745	 1.5728157179	-1.2891942456	 0.112206
H	 1.8240304591	 2.4297119295	 0.4894154752	 0.067293
H	 2.1972422248	-0.4927406405	 0.8481992172	 0.112206
H	 1.1911533994	 0.4867898128	 1.9449532466	 0.104982
H	-0.7430352899	-0.5344063312	 0.734731284	 0.087174
H	 1.1374983153	-1.6199446639	-2.5924691973	 0.118973
H	 2.2452798924	 2.1411499803	-1.9124511942	 0.111711
H	 3.3939943345	 1.2247814798	-0.9642128106	 0.111711
