18
gdb 65190	2.60248	1.3187	1.21773	1.7505	72.66	-0.2521	-0.046	0.2062	1114.6708	0.145405	-439.038704	-439.029729	-439.028785	-439.072865	32.745	
C	-0.9121850094	 2.2545694702	 0.4229229181	-0.472146
C	-0.4821000824	 0.8059565199	 0.3197728682	 0.270369
C	 0.8320729107	 0.4671417471	-0.2923400105	-0.263135
N	 0.6333672071	 0.32317798	 1.1584736042	-0.354541
C	-1.5991353833	-0.2118220614	 0.2446697254	 0.02112
O	-2.9229635028	 0.2537279592	 0.0554428231	-0.221469
C	-2.3725680794	-0.5374716268	-0.9915452824	-0.048622
C	-2.0735980915	 0.1179142949	-2.3012750448	 0.147821
O	-1.9922456052	 1.3048733308	-2.49032947	-0.249566
H	-0.0325150184	 2.9051445291	 0.4647994773	 0.104659
H	-1.51919261	 2.5380934983	-0.4380195889	 0.167663
H	-1.5061519637	 2.4181606435	 1.3282937844	 0.125521
H	 0.962037304	-0.4698799335	-0.8283096682	 0.112444
H	 1.4397056251	 1.2872289118	-0.6664864548	 0.118946
H	 1.0576168094	 1.1064948238	 1.6495618397	 0.232696
H	-1.4942774386	-1.0241043746	 0.9649720754	 0.116464
H	-2.78287689	-1.5452891196	-1.076752394	 0.107863
H	-1.9127028116	-0.6117171929	-3.1268769323	 0.083912
