19
gdb 38264	3.07037	1.78552	1.43436	0.3052	74.81	-0.2351	0.098	0.3331	954.2039	0.162184	-422.964083	-422.95749	-422.956546	-422.994658	28.095	
C	-0.0418516466	 1.6300704073	 0.0957534594	-0.297084
C	 1.4493141987	 1.2200655318	-0.0046463482	-0.120942
C	 1.1240134559	 0.0458279669	 1.0006671984	-0.308687
C	-0.013760165	 0.0627776434	-0.0374769477	 0.420851
O	-1.0899210605	-0.7773840733	-0.2568638996	-0.308161
C	-1.6082942379	-0.4599609666	-1.5593187784	-0.112709
C	-0.5219877831	-0.3556818351	-2.6474657609	-0.090998
O	 0.4950054422	 0.6078435973	-2.3547991205	-0.278479
C	 1.0568966386	 0.2162925243	-1.1202167505	 0.107456
H	-0.375241105	 2.0226630185	 1.0587949292	 0.091238
H	-0.441648114	 2.1951548642	-0.7442340003	 0.110123
H	 2.3179521903	 1.8723910212	 0.03368493	 0.086657
H	 1.7936634336	-0.8181844553	 0.9863577173	 0.099758
H	 0.8781027576	 0.3559230991	 2.0178082864	 0.104057
H	-2.3049632545	-1.261206206	-1.8205858789	 0.113218
H	-2.1676073254	 0.4849930237	-1.508035431	 0.107925
H	-0.0610141847	-1.3459828954	-2.7936511762	 0.0989
H	-0.9877271673	-0.0500423564	-3.588745213	 0.113269
H	 1.740944877	-0.6329918795	-1.2595021154	 0.063607
