18
gdb 32220	2.69777	1.49702	1.0417	1.9972	83.27	-0.2183	-0.0306	0.1876	1162.4769	0.1499	-398.194565	-398.186248	-398.185304	-398.227473	31.745	
C	 0.0567512858	 1.5446558724	-0.0585353567	-0.38171
C	-0.0011544626	 0.0123013798	 0.0903596048	-0.289542
C	-1.4072920069	-0.5325888269	 0.040708319	 0.283335
N	-2.0257100487	-0.7598129926	 1.1927065681	-0.291883
C	-3.2761190713	-1.2397224176	 1.1558284329	-0.051609
C	-3.9099837296	-1.4947147925	-0.0489986071	-0.021147
N	-3.317213569	-1.267419103	-1.224135305	-0.311637
C	-2.0732432158	-0.7889799723	-1.1889335629	 0.314134
N	-1.4457032993	-0.6116401444	-2.4075122497	-0.568672
H	 1.0906164509	 1.9010367494	-0.023449026	 0.119733
H	-0.3815536012	 1.8838883036	-1.0040940712	 0.108229
H	-0.4995997372	 2.0263480986	 0.7505982013	 0.136535
H	 0.6087313564	-0.4630262091	-0.6879567506	 0.105406
H	 0.4261982491	-0.2715038937	 1.0555508806	 0.124124
H	-3.7668571862	-1.4233983439	 2.1066722999	 0.104731
H	-4.922518297	-1.8892047331	-0.0807188058	 0.108344
H	-2.0814268904	-0.6370040286	-3.1915981874	 0.255444
H	-0.7410898771	 0.1048202038	-2.4683471541	 0.256184
