14
gdb 129729	3.3426	1.23735	0.90743	4.9183	67.31	-0.2307	-0.0487	0.182	1177.8816	0.102096	-470.020265	-470.012087	-470.011143	-470.053048	29.81	
N	-0.2721183107	 1.3739464581	-0.1063363496	-0.637532
C	-0.0557266043	-0.0321823233	-0.0720835321	-0.073052
C	-1.1042133289	-0.9229086022	-0.1628671791	 0.477497
O	-2.420495505	-0.7100171588	-0.2896019675	-0.426122
N	-0.5775262694	-2.1665556089	-0.100883263	-0.262226
N	 0.7654759285	-2.1637954214	 0.026166483	-0.279954
C	 1.0953400614	-0.8684514551	 0.0448202666	 0.206119
C	 2.4901142648	-0.4231808885	 0.1725191516	 0.10424
O	 3.4596860749	-1.13579571	 0.2716479698	-0.262532
H	 0.1983260748	 1.8194441327	-0.8874760408	 0.251217
H	 0.04477137	 1.8354594277	 0.7401943257	 0.251215
H	-2.5245969324	 0.2541715365	-0.3084115005	 0.313263
H	-1.0730068276	-3.0425058158	-0.1388668063	 0.28736
H	 2.592632144	 0.687068829	 0.1711324222	 0.050506
