19
gdb 110004	2.41103	1.23924	0.90518	2.2417	72.92	-0.2436	-0.0234	0.2203	1293.9472	0.157165	-460.142498	-460.132936	-460.131992	-460.177797	34.175	
C	 0.1961651387	 1.3802870531	 0.0872970732	-0.253652
O	-0.0230059935	-0.0093992685	-0.1075058886	-0.2649
C	 0.6495049715	-0.5299839532	-1.2375402962	 0.065692
C	 1.9944301769	-1.2154307243	-0.8237762674	 0.143474
O	 2.6122645854	-0.7479284567	 0.3406950654	-0.431069
C	 1.2501951902	-2.5791077641	-0.7897111594	-0.300113
C	 0.0899792765	-1.9383996733	-1.613050094	-0.114343
C	-1.3186429134	-2.2521568367	-1.1786917328	 0.171624
O	-2.214838893	-2.5374429001	-1.9317155036	-0.258295
H	 1.2595951911	 1.6070450153	 0.2319571555	 0.12878
H	-0.1781385084	 1.960353288	-0.7681059168	 0.119796
H	-0.3610253406	 1.6673237157	 0.9820499975	 0.133249
H	 0.6752891127	 0.2116450685	-2.0450845798	 0.073794
H	 2.7392757014	-1.1728183095	-1.6229110345	 0.096365
H	 1.9088949833	-0.650385509	 0.9952652139	 0.286293
H	 1.7487818875	-3.4504025265	-1.217439174	 0.115894
H	 0.9275957052	-2.82057023	 0.2289086634	 0.108796
H	 0.1744991448	-2.1173157493	-2.6865006405	 0.09632
H	-1.4796523865	-2.2129528593	-0.0798904015	 0.082295
