20
gdb 26339	4.01841	1.01642	0.8341	1.1752	84.52	-0.1807	0.0329	0.2136	1420.5478	0.170104	-403.170237	-403.160661	-403.159717	-403.204804	34.968	
C	 0.0687743504	 1.4130436068	 0.0904267261	-0.332263
N	 0.0162613561	 0.0159431029	-0.3096571235	-0.15525
C	 1.2126413877	-0.7389336799	 0.0070868539	-0.329182
C	-1.1844188136	-0.6569635944	-0.0747665562	 0.313458
C	-1.3562081235	-1.9597808222	 0.3036139982	-0.140461
O	-2.6929332021	-2.2667413143	 0.3550100788	-0.19354
C	-3.3789336715	-1.1439707737	 0.0260237014	 0.393872
C	-4.8629421958	-1.2382399423	 0.025186509	-0.488057
C	-2.5156754584	-0.1288565518	-0.2457900279	-0.40087
H	 0.9802899912	 1.8663021299	-0.3106071367	 0.11928
H	-0.7827920765	 1.9577842899	-0.3223845834	 0.129256
H	 0.0669146288	 1.5525417684	 1.18552429	 0.105229
H	 1.3109435955	-0.9644618226	 1.0842472638	 0.102603
H	 1.2035848797	-1.6875076099	-0.538917326	 0.128892
H	 2.0938063961	-0.1729494945	-0.306919314	 0.118078
H	-0.6828864548	-2.7620307335	 0.546053006	 0.120976
H	-5.2155783134	-2.0003710478	-0.6790465795	 0.137106
H	-5.2490844034	-1.5062349469	 1.0154096964	 0.136312
H	-5.2976327758	-0.2786879806	-0.2632293339	 0.131915
H	-2.7925084068	 0.8695102365	-0.5443472124	 0.102647
