20
gdb 88181	3.45249	1.20546	1.0612	1.9667	81.51	-0.2281	0.0272	0.2553	1205.1451	0.172363	-403.156886	-403.148598	-403.147654	-403.189641	32.166	
C	-0.0938786806	 1.5223696741	-0.0894696878	-0.414008
C	 0.0218292513	 0.0196960906	 0.0365939846	-0.040207
C	 1.3298505286	-0.6952896688	-0.1898977892	-0.337241
C	 0.7190439531	-0.6548166329	 1.1996881871	 0.359486
C	 1.3690143125	 0.1502357367	 2.310517542	-0.304558
C	 2.1282226251	-0.8130730232	 3.2181270197	-0.076945
O	 1.2667725383	-1.8572892788	 3.6932360564	-0.226179
C	 0.3827931889	-2.3312254139	 2.7801829017	 0.106929
N	 0.1000593456	-1.879579685	 1.63165503	-0.306134
H	 0.8170650687	 2.0346617256	 0.2343638988	 0.110876
H	-0.2729662616	 1.8081090443	-1.1319584081	 0.119652
H	-0.9258061771	 1.9122377064	 0.5077579245	 0.119112
H	-0.8544272275	-0.5308271018	-0.2933937908	 0.096858
H	 1.3191885917	-1.6454542213	-0.7102329275	 0.118969
H	 2.2168754295	-0.0909098456	-0.3584490592	 0.103204
H	 2.0565778804	 0.9088688065	 1.9266722284	 0.104105
H	 0.6030135692	 0.667825764	 2.9014319404	 0.113203
H	 2.9641576554	-1.2733550908	 2.6754894491	 0.114441
H	 2.5216173773	-0.322439007	 4.1112252541	 0.115919
H	-0.1101351288	-3.2211248292	 3.1659275157	 0.12252
