23
gdb 109586	2.54051	1.21122	1.01445	1.2349	81.09	-0.2446	0.0486	0.2933	1306.6417	0.204522	-425.418842	-425.408418	-425.407474	-425.454002	38.921	
C	-0.3897861843	 1.8650764658	-0.2131591307	-0.382812
C	-0.1742217528	 0.3699352565	-0.4729483315	-0.190768
C	-1.3363690597	-0.4888163281	 0.015060974	 0.020675
C	-1.2766224074	-2.0535041047	-0.0791030169	-0.077363
C	 0.1132609379	-2.684820716	-0.1208079142	-0.411658
C	-1.9697072084	-2.102451083	 1.3263049819	 0.137716
O	-1.5065709144	-2.9995209727	 2.2992561285	-0.438801
C	-1.6055059971	-0.6011186941	 1.5395093876	 0.034099
O	-0.3907059968	-0.475866773	 2.2778906631	-0.434947
H	 0.4429408289	 2.458574653	-0.60349609	 0.109319
H	-1.3078661377	 2.2262224701	-0.690857357	 0.107384
H	-0.4673486148	 2.0654150975	 0.8599562906	 0.122731
H	-0.0380009646	 0.1979459292	-1.5484916793	 0.091245
H	 0.7518236325	 0.0504003604	 0.0138393028	 0.110464
H	-2.2602834468	-0.1381134158	-0.4608286866	 0.069462
H	-1.8838370191	-2.473997707	-0.8869586352	 0.063001
H	 0.7754338066	-2.2753859271	 0.6477070902	 0.122316
H	 0.0426731875	-3.7652993858	 0.0377121605	 0.120964
H	 0.5906362588	-2.5161222387	-1.091239288	 0.112332
H	-3.0492387732	-2.2547414369	 1.2396511959	 0.082389
H	-0.6184731931	-2.697478284	 2.5292765855	 0.27816
H	-2.3763995162	 0.0541961479	 1.9616691511	 0.06154
H	-0.6211405458	-0.4423799734	 3.2115391377	 0.292551
