20
gdb 80149	2.21988	1.70548	1.45171	2.1482	79.19	-0.2276	0.0225	0.2502	1042.8662	0.171728	-403.153436	-403.144737	-403.143793	-403.18643	32.956	
C	 0.0566027323	 1.5578108203	-0.0293915538	-0.426126
C	 0.1127415216	 0.0470982133	 0.0440232084	-0.061794
C	 1.3907791308	-0.7609625661	-0.1642073276	-0.04393
N	 2.6449154069	-0.1014572939	-0.3565203807	-0.252755
C	 3.1037174883	 0.5910898943	 0.5966768695	 0.109713
O	 2.5716343752	 0.8215495639	 1.8206478026	-0.232108
C	 1.4999878407	-0.0247972428	 2.2765514238	-0.132532
C	 0.7155705484	-0.738530575	 1.1895687961	 0.242616
C	-0.0132857094	-1.9687809289	 1.6905380881	-0.471237
H	 0.9200903706	 2.039379365	 0.4316164034	 0.138985
H	 0.0044080934	 1.8909491262	-1.0710967365	 0.125588
H	-0.8392257753	 1.9287195932	 0.4811939007	 0.115244
H	-0.7647967048	-0.4295599385	-0.38846338	 0.084592
H	 1.2969284268	-1.6597412061	-0.7666494526	 0.088985
H	 4.0416665485	 1.1327388184	 0.4940642976	 0.123863
H	 1.9448516427	-0.7778136063	 2.9397169507	 0.114113
H	 0.8602065204	 0.6204918779	 2.889139457	 0.117234
H	-0.7609445817	-1.7116541245	 2.4514466281	 0.117741
H	-0.5384773417	-2.4688682104	 0.8715340348	 0.122022
H	 0.6800901063	-2.69268343	 2.1347073506	 0.119786
