21
gdb 107482	2.11038	1.67688	1.2288	2.4526	82.58	-0.2248	0.0639	0.2887	1133.0643	0.182996	-383.197906	-383.18913	-383.188186	-383.231175	34.015	
C	 0.1851928531	 1.5722834239	-0.1141143424	-0.380645
C	 0.001945793	 0.0503456533	-0.0105266748	-0.319004
C	-1.4350501413	-0.38939312	 0.0251493112	 0.254042
N	-1.9107407552	-1.6553911332	-0.6060444629	-0.380162
C	-2.5137247608	-0.3561087948	-1.0067164925	-0.109102
C	-3.5891937668	-0.0359008193	 0.0405475117	-0.296325
C	-2.4783785455	-0.123275049	 1.1116663566	 0.349822
C	-2.5076762651	-0.6437592989	 2.489973135	-0.298918
N	-2.3840104511	 0.8118841341	 2.2278607793	-0.38076
H	 1.2468583423	 1.8371661213	-0.1179367001	 0.116155
H	-0.2632840258	 1.9536622012	-1.0365562695	 0.123115
H	-0.2875830714	 2.1009249863	 0.7187004746	 0.126454
H	 0.4952111406	-0.4278309745	-0.8662271285	 0.100772
H	 0.5211955455	-0.3307430568	 0.8799562275	 0.105674
H	-1.2274338953	-1.8957830305	-1.3258812378	 0.219612
H	-2.4743562642	-0.0245034683	-2.0374250451	 0.091815
H	-3.9779810225	 0.9822191683	-0.0397604534	 0.112563
H	-4.4116565055	-0.7518867048	 0.1132046414	 0.107053
H	-3.4500837589	-0.9446401761	 2.939206493	 0.119204
H	-1.6382545305	-1.1858495657	 2.8540289602	 0.10958
H	-1.4190328946	 1.1002412137	 2.3717151764	 0.229052
