18
gdb 22177	2.25697	1.49	1.11454	1.6338	70.88	-0.2572	-0.0068	0.2504	1135.3669	0.145616	-476.181369	-476.172115	-476.171171	-476.215221	34.459	
C	 0.0849808684	 1.5950187848	-0.0162681456	-0.425631
C	-0.0438902775	 0.0663637931	 0.0353955331	 0.288985
O	-1.4001561717	-0.3333500373	 0.053899893	-0.476029
C	 0.6958801174	-0.6112969715	-1.1380642211	-0.116364
O	 2.0561732057	-0.6951656662	-0.7246373762	-0.257537
C	 2.0640080569	-1.0414475684	 0.6544845854	-0.16248
C	 0.76169888	-0.5087722286	 1.1928418261	 0.323796
N	 0.2830486932	-0.5408997405	 2.3654951684	-0.238676
O	 1.1688341913	-1.1503476748	 3.2684145562	-0.392768
H	 1.1301388336	 1.8947252322	-0.1416061067	 0.128054
H	-0.4972879291	 1.9798690585	-0.8585343478	 0.125238
H	-0.2951331161	 2.039418361	 0.9082349019	 0.121494
H	-1.6918237532	-0.2973814964	 0.9727293751	 0.289133
H	 0.2566519697	-1.6060117862	-1.3058480993	 0.104784
H	 0.6646134427	-0.0398205592	-2.0679977151	 0.114973
H	 2.1136329607	-2.1321295083	 0.8051446355	 0.124883
H	 2.9427700927	-0.5983492674	 1.1328351456	 0.138017
H	 0.6811959653	-1.1158631947	 4.0985974115	 0.310126
