19
gdb 59837	5.62523	0.54603	0.52637	2.8196	83.41	-0.2449	0.0295	0.2744	2106.6313	0.156186	-422.971038	-422.960725	-422.959781	-423.008498	35.969	
C	-0.141734239	 1.6090778685	-0.0723984282	-0.403867
C	-0.0107336959	 0.0860011254	-0.0930204898	 0.149643
O	 1.0436876629	-0.3609946187	 0.7441916209	-0.420157
C	-1.3511871277	-0.5975934515	 0.2662296404	-0.382517
C	-1.3005783127	-2.0512628115	 0.1971041389	 0.077293
C	-1.2616559863	-3.2529834971	 0.1242342857	 0.133258
C	-1.1697058495	-4.6844089888	 0.0392708667	-0.118011
C	-2.2535150378	-5.5676973105	 0.514145508	-0.160728
O	-2.0511230552	-5.3597564538	-0.8768580903	-0.217041
H	 0.8208142177	 2.0698795635	-0.3078871006	 0.128791
H	-0.8822050561	 1.9576044895	-0.799628209	 0.118746
H	-0.4555682403	 1.9598863116	 0.9190270142	 0.107216
H	 0.279657658	-0.2416119933	-1.0972788133	 0.104622
H	 0.8454771	-0.0843675141	 1.6460977662	 0.276965
H	-1.6474406726	-0.278937655	 1.2769515868	 0.116437
H	-2.1335082836	-0.2254138528	-0.4081612962	 0.133677
H	-0.1572732946	-5.0872661214	 0.0438257059	 0.117487
H	-2.0042991348	-6.5606787412	 0.8870240219	 0.117075
H	-3.1524735626	-5.1178227587	 0.9314369918	 0.121111
