21
gdb 35961	3.18891	1.10527	0.8934	1.2086	84.9	-0.2453	0.0552	0.3005	1333.4035	0.183472	-387.062158	-387.053323	-387.052379	-387.095494	34.276	
C	 0.2985809864	-1.2895561664	 0.5283152465	-0.44234
C	 0.1297805059	-0.1329839961	 0.2457182854	 0.302701
C	-0.0620314979	 1.2802433814	-0.0751501338	-0.172807
C	-0.9217922912	 1.9766451652	 1.0136235166	-0.183064
C	-1.4230887638	 3.3647323913	 0.5838268421	-0.241266
C	-0.4177892117	 4.5083114761	 0.8033211551	-0.061184
O	 0.9417215009	 4.1628839302	 0.6166521318	-0.240074
C	 1.2544546061	 3.4619232773	-0.5746755196	-0.098803
C	 1.3078195247	 1.9522929196	-0.3324064054	-0.182219
H	 0.4417968583	-2.3137328832	 0.7686257915	 0.190461
H	-0.6384649359	 1.332153488	-1.011499531	 0.099409
H	-1.7818252557	 1.3310871674	 1.2160944854	 0.107248
H	-0.3496205536	 2.0413869139	 1.9458126412	 0.113921
H	-1.7250273631	 3.3205313692	-0.4700419929	 0.099185
H	-2.3324654815	 3.6205611903	 1.1400496397	 0.100287
H	-0.690698209	 5.3617075016	 0.1604589319	 0.086596
H	-0.4705343249	 4.8539416806	 1.8412910456	 0.108692
H	 0.5562531855	 3.7170421609	-1.3862535251	 0.088208
H	 2.2477830174	 3.8055720418	-0.8860631251	 0.104941
H	 1.9589761077	 1.7785833067	 0.5313385902	 0.118108
H	 1.7818965155	 1.4636581841	-1.1917762702	 0.102001
