17
gdb 41273	3.49976	1.88345	1.50984	2.1926	70.71	-0.2362	0.0584	0.2946	876.1149	0.137993	-421.735809	-421.729708	-421.728764	-421.76596	25.71	
C	 0.094168242	 1.5352504157	-0.1656867101	-0.19883
O	 1.4949819051	 1.3778077083	 0.2094573893	-0.305934
C	 1.2522858684	 0.0408016813	 0.7141561653	 0.09451
C	 1.7587945244	-1.139027438	-0.1258147763	 0.050053
O	 1.0718031583	-2.3094135812	 0.4034044197	-0.309301
C	-0.1078914996	-2.0654572475	-0.4078443781	 0.110626
C	-1.1127232503	-1.0636556663	 0.242325938	-0.360498
C	-0.0872109605	 0.0312134691	-0.0701438394	 0.28543
C	 0.6072702056	-0.8993358983	-1.1353839091	-0.122646
H	-0.4522065455	 2.1182581168	 0.5896051902	 0.10364
H	-0.0229820345	 2.0069130561	-1.147399415	 0.108329
H	 1.3346567444	-0.02269757	 1.8039194519	 0.080189
H	 2.8158791119	-1.3202468914	-0.329096601	 0.081527
H	-0.4875283029	-2.985171007	-0.8558520786	 0.084551
H	-2.009615333	-0.9943952497	-0.3847035244	 0.107041
H	-1.402950228	-1.2223124404	 1.2842103131	 0.110719
H	 0.6580771045	-0.7209789574	-2.2056515554	 0.080594
