21
gdb 121263	3.89973	0.95666	0.85278	1.2725	78.61	-0.2307	0.0806	0.3113	1428.2459	0.18247	-424.203491	-424.194574	-424.19363	-424.237829	33.265	
C	 0.0179798801	 1.5063649129	-0.1217418075	-0.38348
C	-0.0983177161	-0.0078587985	-0.1657018685	-0.03916
O	 0.8176043215	-0.4977741578	-1.128482365	-0.253162
C	 0.8821471247	-1.90731726	-1.2012974206	 0.105162
C	-0.3467438323	-2.5343947805	-1.9275069893	-0.118368
O	 0.1276286959	-3.6199146728	-2.7144115658	-0.256707
C	 1.4957943507	-3.4146789272	-2.9639060528	 0.11619
C	 1.9425236248	-2.0996305937	-3.5392704231	-0.320447
C	 2.0513191575	-2.3667966446	-2.0456722169	-0.107325
H	 1.0349683669	 1.8039297333	 0.1487509194	 0.127265
H	-0.2152904825	 1.9369545325	-1.0996494553	 0.127145
H	-0.6756813822	 1.9218182891	 0.615360737	 0.114343
H	 0.1263685542	-0.4429605406	 0.8230314684	 0.086243
H	-1.1296235096	-0.3032490673	-0.4195796871	 0.089473
H	 0.9806003382	-2.321121078	-0.1850750694	 0.068436
H	-1.1108307484	-2.9249944189	-1.2498176149	 0.108659
H	-0.8048479533	-1.7566295474	-2.5556801179	 0.103536
H	 2.0057857856	-4.3381196482	-3.2106543628	 0.101424
H	 2.8687147006	-2.0939480935	-4.1034378046	 0.113716
H	 1.2012860337	-1.3889667576	-3.8862498588	 0.126396
H	 3.02600542	-2.4514353514	-1.5817315545	 0.090662
