14
gdb 129283	3.45393	1.3733	0.98261	1.3632	80.16	-0.2717	-0.0913	0.1804	1113.3718	0.101808	-432.821833	-432.814354	-432.81341	-432.855119	27.463	
N	 0.0771888178	 0.842784113	-1.2142974131	-0.472422
C	 0.026772312	 0.1135051606	-0.1766249679	 0.376709
O	 1.2499777812	-0.1585975663	 0.4423590052	-0.297486
N	 1.5587814018	-0.8848852248	 1.5716783861	-0.056364
C	 0.717848117	-1.5036097839	 2.3077470728	 0.001249
C	-0.7463721176	-1.7163954047	 2.3188989049	 0.238998
N	-1.2989757569	-2.4278491048	 3.2348075449	-0.470712
C	-1.6212295051	-1.1369061693	 1.3071537728	-0.087153
C	-1.2771340672	-0.3706581828	 0.2681379705	-0.115563
H	 1.0429732722	 1.1113616965	-1.4152180719	 0.240518
H	 1.2330430097	-1.9968988039	 3.133770209	 0.132528
H	-0.6020786033	-2.7861149346	 3.893295046	 0.230744
H	-2.6677278124	-1.3820161771	 1.4550404262	 0.134825
H	-2.0549982295	-0.0146219581	-0.3980231656	 0.144129
