16
gdb 94147	1.94333	1.5375	1.29794	4.5469	75.41	-0.2771	0.0035	0.2806	1079.6605	0.122842	-400.712164	-400.70337	-400.702426	-400.745456	32.911	
O	 0.467736161	 0.8555024834	-0.7213855134	-0.411314
C	 0.1146371165	-0.1996534242	 0.0990917402	 0.136478
C	-0.0684274128	-0.0084644286	 1.6254817037	-0.269628
C	-1.2426412503	-1.0156246343	 1.5854021177	-0.253436
C	-1.3855842829	-0.7660509223	 0.0364826235	-0.079134
C	-2.3151981004	 0.3065811102	-0.2797135705	 0.279011
C	-3.0175780402	 1.2507044415	-0.5272833513	-0.425684
C	-1.599902336	-1.9412205531	-0.7993567178	 0.232449
N	-1.7272162664	-2.8959590885	-1.4385543319	-0.339072
H	-0.220643658	 1.5309033553	-0.6575498658	 0.288579
H	 0.8004470349	-1.0210991975	-0.121042893	 0.123467
H	 0.786039148	-0.2422483822	 2.2616533393	 0.118956
H	-0.4154313316	 1.0039933337	 1.8495721123	 0.117947
H	-0.9242965675	-2.0425651765	 1.7722233281	 0.135569
H	-2.1310015923	-0.7952965888	 2.1756537468	 0.131792
H	-3.675481822	 2.0546180119	-0.7514969676	 0.21402
