25
gdb 112117	2.57551	1.19417	0.96646	0.2268	94.21	-0.2336	0.0299	0.2635	1381.5442	0.230227	-352.383809	-352.374183	-352.373238	-352.417802	37.606	
C	-0.1944369735	 1.6177621753	-0.0580025096	-0.393065
C	 0.0379318239	 0.1066292607	 0.0456965466	-0.194084
C	 0.8087802644	-0.4906114671	-1.1502667651	 0.002589
C	 2.2662461481	-0.0809752236	-1.1552012977	-0.041244
C	 3.258595384	-0.8514845002	-1.6008867073	-0.064613
C	 3.0492087898	-2.2295570255	-2.1684509892	-0.244598
C	 1.5617830261	-2.5271523675	-2.4166505878	-0.220203
C	 0.6682400728	-2.0306270773	-1.2636068188	-0.004016
C	 0.9689588867	-2.7727896952	 0.0485916381	-0.391619
H	 0.7456963927	 2.177263414	-0.0988460369	 0.119108
H	-0.7649221131	 1.8672724721	-0.9597775521	 0.11348
H	-0.7568213091	 1.9883879275	 0.8048388789	 0.111127
H	 0.5688687462	-0.1187124917	 0.9783257584	 0.099112
H	-0.9357916975	-0.3952244775	 0.1168665814	 0.091119
H	 0.3419314831	-0.0677410982	-2.05549938	 0.074528
H	 2.500506363	 0.9076541545	-0.766750995	 0.078172
H	 4.2832282955	-0.488240678	-1.5544807795	 0.078605
H	 3.6138162307	-2.3381083917	-3.1035337136	 0.099627
H	 3.4837066285	-2.9740700162	-1.4850709812	 0.10623
H	 1.2490638784	-2.0267715646	-3.3417389086	 0.093246
H	 1.413372848	-3.6015123947	-2.5755568308	 0.08598
H	-0.3754392326	-2.2445234505	-1.5306552455	 0.061358
H	 1.9611996493	-2.5253524097	 0.438124018	 0.122221
H	 0.2394203035	-2.5282872752	 0.8256048204	 0.11207
H	 0.929934711	-3.8563691096	-0.1079783427	 0.104871
