18
gdb 47041	3.61021	1.30928	1.03831	2.0861	71.18	-0.2424	0.0282	0.2706	1123.6649	0.150619	-439.109362	-439.101805	-439.100861	-439.14188	29.011	
O	-0.0489566067	-0.0944142986	-0.5934487368	-0.369304
C	-0.0174256304	 1.060655371	-0.2178449765	 0.392299
C	-1.2262304536	 1.8203009926	 0.3269704001	-0.348828
C	-1.3149526816	 3.2287992727	-0.2754529622	-0.058176
C	-1.7932187765	 4.3886440431	 0.6278610053	-0.094183
O	-0.4786776209	 4.9920850861	 0.6285653839	-0.291809
C	 0.0315805804	 3.988654611	-0.2712525775	 0.140305
C	 1.1856024534	 3.1643503658	 0.3140406509	-0.205067
N	 1.1218234636	 1.8232523548	-0.2458929293	-0.299666
H	-2.1162316386	 1.2213571666	 0.1298651116	 0.130895
H	-1.1120043229	 1.8899069729	 1.4172048834	 0.123721
H	-1.7985391379	 3.1924281018	-1.2529711024	 0.093035
H	-2.543416928	 5.0534091079	 0.1835165428	 0.107227
H	-2.1169561563	 4.1082722336	 1.6379170384	 0.10485
H	 0.3188124521	 4.4218703971	-1.2369701386	 0.084594
H	 2.1578840663	 3.6010533593	 0.0746863133	 0.119979
H	 1.0884507421	 3.1623045041	 1.4087557493	 0.1188
H	 1.9632984355	 1.3492963381	-0.5354316555	 0.251327
