15
gdb 2374	4.71503	2.07231	1.76569	3.2276	58.7	-0.2418	-0.0222	0.2196	754.2813	0.123643	-345.663783	-345.656536	-345.655591	-345.695086	26.572	
C	-0.0029031408	 1.4412268576	 0.0181423562	-0.482587
C	 0.0211782018	-0.0708138143	-0.0396801283	 0.417559
O	 1.0784029162	-0.6889893718	-0.0578008432	-0.36801
C	-1.2797104267	-0.7690501169	-0.038153633	-0.191118
C	-1.3844047831	-2.0978762599	-0.8028967659	-0.32255
C	-1.3135307857	-2.1482298718	 0.6761488466	 0.158591
O	-0.211471064	-2.6192235802	 1.3544676382	-0.417755
H	 1.0152691294	 1.8308116224	 0.0386697264	 0.144175
H	-0.5380703151	 1.8448727538	-0.8488594857	 0.14304
H	-0.5454679823	 1.7748436534	 0.9100313766	 0.145531
H	-2.1677055999	-0.1496798329	 0.0175345248	 0.091975
H	-2.3261930439	-2.2972973716	-1.3019573628	 0.122223
H	-0.4926141881	-2.386163115	-1.3497936208	 0.137735
H	-2.22542511	-2.3543639211	 1.2273968419	 0.116032
H	 0.5725108324	-2.2433001918	 0.9156769989	 0.305158
