21
gdb 101271	2.60303	0.96407	0.86167	4.6327	83.71	-0.2738	0.016	0.2898	1464.4328	0.181821	-383.267161	-383.257086	-383.256142	-383.302702	36.492	
C	-0.2167819153	 1.5274021513	-0.0878744401	-0.394331
C	-0.0750280324	 0.0055478571	-0.1831736462	-0.173003
C	 0.9996288109	-0.471987463	-1.1794666322	 0.030137
C	 2.4244525548	-0.0659988414	-0.7764683779	-0.405586
C	 0.9121353251	-1.9772475933	-1.3310426234	-0.012731
N	-0.1670078512	-2.5092324698	-2.1612546622	-0.319577
C	 1.2300738577	-2.6922681288	-2.6102669627	-0.20621
C	 1.627846774	-1.9801711939	-3.8011498533	 0.33558
N	 1.9818620198	-1.4172437536	-4.7471146661	-0.340886
H	 0.6902552715	 2.0028481828	 0.2976047217	 0.118873
H	-0.4310108412	 1.9645321708	-1.0693471965	 0.122055
H	-1.0380802279	 1.7989854297	 0.5824169572	 0.114496
H	 0.1473844628	-0.407002584	 0.8113318967	 0.087327
H	-1.0349628208	-0.4256308408	-0.4907086802	 0.110327
H	 0.771243428	-0.0326153011	-2.1585492759	 0.100561
H	 3.1563907291	-0.4199893837	-1.5089123189	 0.127738
H	 2.5242395326	 1.0200913452	-0.7094924942	 0.125697
H	 2.6923323411	-0.4860966311	 0.20072901	 0.109882
H	 1.1735108175	-2.5395278156	-0.4331845912	 0.094396
H	-0.5217939424	-3.3902985746	-1.7990882791	 0.244785
H	 1.6733450262	-3.6813401221	-2.5308502955	 0.13047
