21
gdb 101685	4.58048	0.65483	0.59603	1.884	71.64	-0.2577	0.0471	0.3048	1828.5026	0.180907	-498.487203	-498.476715	-498.475771	-498.522964	38.539	
O	 0.0821242398	 1.4109141127	-0.1519145726	-0.428164
C	 0.0968948473	 0.0051941409	-0.0340861622	-0.0468
C	-1.3216517628	-0.5540960362	 0.0511841512	 0.101413
O	-1.981493986	-0.0717067877	-1.1170195313	-0.460885
C	-1.3528436377	-2.0847801773	 0.1388025832	-0.242044
C	-2.7596963559	-2.6579700826	 0.3169204538	 0.079344
O	-3.6392118579	-2.2931443152	-0.7703584671	-0.44375
C	-2.7890451048	-4.1784873749	 0.4737262303	-0.062207
O	-4.1086077977	-4.6525811966	 0.6199898168	-0.421046
H	-0.5830709588	 1.6044560627	-0.8243383235	 0.29228
H	 0.612386152	-0.4674366379	-0.8876307626	 0.083257
H	 0.6548549802	-0.2410444288	 0.875541021	 0.102128
H	-1.7990482198	-0.1325697667	 0.9517883645	 0.074035
H	-2.8813124032	-0.4229036917	-1.0993631211	 0.290398
H	-0.8933143808	-2.5056748383	-0.7667011315	 0.099404
H	-0.7384626287	-2.4090981351	 0.9887624553	 0.11043
H	-3.2365628803	-2.2131196025	 1.1982041402	 0.106674
H	-3.2221895087	-2.5929693996	-1.5887754268	 0.289191
H	-2.2848314572	-4.6386614274	-0.396744053	 0.076223
H	-2.2310655944	-4.4771492032	 1.3676906812	 0.113647
H	-4.6369683344	-4.1627793746	-0.0229536056	 0.286474
