15
gdb 87552	2.63887	1.58102	1.17201	3.3301	66.86	-0.2428	-0.0298	0.213	1030.1345	0.110557	-457.703801	-457.69591	-457.694966	-457.736386	29.467	
O	-0.1224132765	 1.4405139222	-0.0276120812	-0.416295
C	-0.0136581721	 0.050814237	-0.042698561	 0.044248
C	-0.3942676612	-0.7328970547	 1.1853415705	-0.391664
C	-1.3107671957	-0.6889509189	-0.020564955	 0.211635
C	-2.725875398	-0.1489803712	-0.131906713	-0.07267
O	-3.0002773322	-0.0403011873	-1.5248726945	-0.228923
C	-3.181973453	-1.3321032305	-0.9065486652	-0.114446
C	-1.7671530365	-1.9238317735	-0.7936451983	 0.361338
O	-1.2592888373	-2.9726146763	-1.0594996764	-0.313421
H	 0.638918937	 1.7953058368	 0.444071929	 0.29409
H	 0.7695459443	-0.3580569326	-0.6812631482	 0.109351
H	 0.1085096051	-1.6731405061	 1.388365165	 0.136987
H	-0.7062149244	-0.1642087575	 2.0553681575	 0.127167
H	-3.2867716871	 0.4654622651	 0.5597620813	 0.127274
H	-4.1512373226	-1.8071468027	-0.9945131103	 0.125328
