18
gdb 102247	1.89744	1.20024	0.86083	5.0413	73.95	-0.2697	0.0199	0.2896	1388.3071	0.146995	-435.325407	-435.315207	-435.314263	-435.361719	35.975	
C	-0.0234831432	 1.5549479506	-0.1366704745	-0.39247
C	-0.0059687259	 0.0301902881	-0.0291066213	-0.175908
C	 0.7786431216	-0.6345338004	-1.1810525324	-0.109137
N	 2.1855478739	-0.2599196905	-1.1960962012	-0.346788
C	 2.7494797422	 0.2206153175	-2.371229568	 0.473273
N	 4.1268728439	 0.3153783154	-2.3286576067	-0.565999
O	 2.0911070475	 0.5214368066	-3.3477517862	-0.380685
C	 0.6333854165	-2.100409198	-1.1209092464	 0.263015
N	 0.5325990878	-3.2485470381	-1.0349751308	-0.320087
H	 0.9906589423	 1.9630440324	-0.1176766915	 0.126514
H	-0.4982136394	 1.8808284725	-1.0677711945	 0.1319
H	-0.5806742204	 1.9909342499	 0.6971545788	 0.121059
H	 0.4331348703	-0.2840656236	 0.9252812497	 0.108452
H	-1.0267976437	-0.366723753	-0.0459058891	 0.123998
H	 0.3815269533	-0.2916231784	-2.1430091703	 0.17011
H	 2.787573009	-0.7540482978	-0.5546083296	 0.251033
H	 4.5781441971	 0.4505302879	-1.4372434949	 0.253283
H	 4.5122717269	 0.8593063388	-3.0849565111	 0.268437
