19
gdb 53316	4.99243	0.79002	0.75455	1.3399	85.01	-0.2377	0.0572	0.2949	1559.3893	0.157482	-385.833949	-385.824429	-385.823484	-385.869387	34.696	
C	-0.0157820659	 1.5207644853	-0.0350478933	-0.497331
C	-0.0025625094	 0.0650942135	 0.0012391606	 0.037192
C	 0.0131909205	-1.1398590279	 0.0216855055	 0.106959
C	 0.022660891	-2.5919791243	 0.0642497438	-0.176627
C	 0.2459053216	-3.2940999217	 1.4629665412	-0.310936
C	-1.1075484989	-3.9911624995	 1.2928851189	 0.403665
O	-1.3390438429	-5.3153024197	 1.6224025935	-0.464646
C	-2.2142253974	-2.9895401017	 1.120035734	-0.341249
C	-1.328247663	-3.3326927381	-0.0571156685	-0.110928
H	 0.8558859974	 1.9142329334	-0.5700309729	 0.14631
H	-0.9113714337	 1.8991905971	-0.5405835823	 0.146417
H	-0.0025095787	 1.9464786953	 0.9746654943	 0.144798
H	 0.7411060866	-2.9828259949	-0.6623026164	 0.101925
H	 1.0798107551	-3.9979364606	 1.4271226782	 0.111604
H	 0.3604579881	-2.6325342379	 2.3263951591	 0.09737
H	-1.6952474502	-5.3469539213	 2.5169736379	 0.285261
H	-3.2043831067	-3.4313085202	 1.0689373109	 0.111436
H	-2.1714428786	-2.0015348371	 1.5724915197	 0.113554
H	-1.729685575	-3.7416927196	-0.975626684	 0.095226
