19
gdb 99671	2.49005	1.15076	0.84897	2.7759	76.01	-0.2555	0.0212	0.2767	1364.7452	0.159261	-419.181062	-419.171493	-419.170549	-419.216587	33.305	
C	 0.0922836957	 1.506312657	 0.0013459587	-0.332312
N	-0.131395342	 0.0745137674	-0.1938126697	-0.275444
C	 0.6812185324	-0.5322132476	-1.2382772667	-0.131485
C	 2.1383792542	-0.4738452339	-0.9552691827	 0.266184
N	 3.2603939252	-0.4240212517	-0.6793432617	-0.327434
C	 0.2487204954	-1.9820590901	-1.4778579099	-0.040131
C	-1.1330777258	-2.1252786173	-2.1463320106	-0.087414
O	-0.5344726252	-2.5803960123	-3.3785067358	-0.271797
C	 0.7742406498	-2.6339152929	-2.7751599615	-0.08912
H	 1.1344958066	 1.7704155742	 0.2390566708	 0.127616
H	-0.196124228	 2.0437357214	-0.9082904911	 0.131066
H	-0.5489242931	 1.8568198877	 0.8139139408	 0.130913
H	 0.02067127	-0.4207844099	 0.6795156432	 0.230117
H	 0.5103901956	 0.0356793472	-2.162817266	 0.134227
H	 0.3981984458	-2.5670702579	-0.5671770517	 0.091929
H	-1.7844433374	-2.886990561	-1.7002927436	 0.103638
H	-1.7010156855	-1.1968846761	-2.2709082761	 0.115989
H	 1.5188074994	-2.0610526392	-3.3413082452	 0.114207
H	 1.1335088868	-3.6636388648	-2.6586841412	 0.109252
