21
gdb 118705	3.51073	1.01521	0.90672	1.7127	78.63	-0.2523	0.0768	0.3291	1376.2915	0.181606	-424.160956	-424.152126	-424.151182	-424.194729	34.336	
C	 2.2373757937	 1.7207059211	-1.3252169814	-0.383708
C	 2.2102793273	 0.1923459741	-1.3993087436	-0.15954
C	 0.7832216241	-0.3761670854	-1.3896723155	-0.266613
C	 0.7538779781	-1.8949482602	-1.3774756834	 0.487585
O	 1.315355735	-2.3222327207	-0.1732348594	-0.493279
C	-0.4944567507	-2.7218406127	-1.8548423516	-0.034583
C	-0.185814671	-2.390208261	-3.3284595597	-0.236033
C	 1.1360788722	-2.7658555368	-2.631469018	-0.023777
O	 0.4160593749	-3.8990669842	-1.977514611	-0.343041
H	 1.7080125514	 2.1722633467	-2.1721740857	 0.109998
H	 1.7578583673	 2.0797637113	-0.4078300241	 0.116264
H	 3.2635674373	 2.1010292156	-1.3343287915	 0.112455
H	 2.726393342	-0.139964762	-2.3098351475	 0.090229
H	 2.7638412681	-0.2348378458	-0.5575912871	 0.122488
H	 0.2635227156	-0.0352760962	-0.4854968401	 0.109626
H	 0.2224730484	 0.0198387072	-2.2410732761	 0.095765
H	 1.2811763423	-3.2898427394	-0.2182052263	 0.285379
H	-1.4526343196	-2.8894033553	-1.3609452018	 0.094609
H	-0.5412894426	-3.1431135315	-4.0312671433	 0.11543
H	-0.3307147255	-1.3729485882	-3.692364412	 0.104996
H	 2.1137587317	-2.9883097166	-3.0608519408	 0.095751
