22
gdb 97401	6.50188	0.597	0.58224	2.9271	89.22	-0.2419	0.0301	0.272	2008.8753	0.192356	-404.340673	-404.330526	-404.329582	-404.37714	36.437	
C	-0.0464807513	 1.4550145513	-0.1429904155	-0.313507
N	 0.0319570627	 0.0255564211	 0.0695033482	-0.210287
C	-1.0419985895	-0.6259339311	 0.011495867	 0.122139
O	-1.0580372893	-1.9555366441	 0.2315783759	-0.209201
C	-2.2789507084	-2.6394036002	-0.0021385901	 0.150747
C	-2.4478325885	-3.3812620787	-1.349927941	-0.268087
C	-3.0720492951	-4.5666637547	-0.5556388199	 0.050741
C	-2.7378299541	-5.9890998411	-0.9755806098	-0.405308
C	-2.4083657735	-3.9870121634	 0.7292305327	-0.269755
H	 0.5983079379	 1.7388456004	-0.98276743	 0.125919
H	-1.0649524255	 1.824111835	-0.3504410606	 0.09304
H	 0.3340132253	 1.981281675	 0.7402065491	 0.126387
H	-2.0316784492	-0.1885245858	-0.2002790225	 0.069378
H	-3.1254493249	-1.9738204371	 0.2075189147	 0.081994
H	-3.0391688068	-2.9036362334	-2.134893092	 0.097033
H	-1.4650298402	-3.6490464939	-1.7501876491	 0.115907
H	-4.1591981913	-4.4419544639	-0.4988372131	 0.073652
H	-1.6536775262	-6.1346463339	-1.0389598641	 0.116238
H	-3.131256682	-6.7179474695	-0.2582093758	 0.116707
H	-3.1644662297	-6.22487212	-1.9568700378	 0.116399
H	-1.4146075079	-4.4174010897	 0.8862832319	 0.118879
H	-2.9632625525	-4.0122750023	 1.6695375819	 0.100986
