17
gdb 16628	3.03151	2.29227	1.53162	1.8404	67.15	-0.2285	-0.025	0.2035	850.0809	0.142749	-363.86551	-363.858287	-363.857343	-363.896918	27.635	
C	 0.1591907591	 1.6310111382	 0.0147755312	-0.396839
C	 0.1069416149	 0.1030557672	-0.0124708033	-0.104139
C	 0.7990299659	-0.6003950803	-1.1633534736	-0.029294
C	 2.2837679391	-0.618287202	-1.1717888793	-0.250968
N	 1.5514547348	-1.7982751356	-0.6906568592	-0.102775
C	 1.4449789138	-1.8342874075	 0.7715157259	-0.270069
C	 0.7502808295	-0.5432362112	 1.2274324731	 0.363438
O	 0.7075621129	-0.1096304618	 2.3484140897	-0.308639
H	 1.1881656269	 1.9910881386	-0.0782937829	 0.121472
H	-0.4257666763	 2.0617889711	-0.8026156714	 0.117874
H	-0.2419153179	 1.9962788677	 0.9641191841	 0.140156
H	-0.9474197767	-0.2134899054	 0.006837236	 0.110026
H	 0.2581219727	-0.730455798	-2.0959563802	 0.09677
H	 2.8220267177	-0.7633943364	-2.1034519094	 0.123643
H	 2.8106271587	-0.0051483382	-0.4407206197	 0.116185
H	 0.8286388149	-2.6917739322	 1.0710145625	 0.135849
H	 2.42043308	-1.9473902943	 1.2535687166	 0.137309
