17
gdb 125246	4.21701	0.87007	0.7694	4.4372	77.02	-0.2369	-0.0191	0.2178	1466.0838	0.135683	-418.04903	-418.039972	-418.039028	-418.084935	31.341	
C	 0.2316365162	 1.4774370997	-0.0962293236	-0.503989
C	 0.0349955931	-0.0030863724	-0.0823957054	 0.392827
C	 0.1128744569	-0.9528813129	-1.0813784653	-0.371947
C	-0.1884000563	-2.1857742393	-0.4530136972	 0.319039
C	-0.2102843438	-3.5556955557	-1.0630099558	-0.370528
C	 1.1992917715	-4.0774007546	-1.2983809787	 0.159757
O	 1.608445957	-4.5003685173	-2.3476129951	-0.240203
N	-0.4292356118	-2.019554124	 0.8458843862	-0.287007
N	-0.2880298675	-0.692390894	 1.0433289768	-0.249562
H	 1.0295167105	 1.7885032541	 0.5876699436	 0.138799
H	 0.5057790989	 1.8080808728	-1.0998222775	 0.147287
H	-0.679923156	 2.0122472101	 0.1942926992	 0.139115
H	 0.3493386738	-0.778916724	-2.1192066239	 0.109548
H	-0.7028541284	-4.2373317624	-0.3586790237	 0.138908
H	-0.7496575763	-3.5780402525	-2.0137410381	 0.124306
H	 1.8497391581	-4.0329056317	-0.395520803	 0.08313
H	-0.4392108658	-0.3212394562	 1.9664068916	 0.270519
