15
gdb 45813	2.99822	1.67934	1.1481	2.2795	68.55	-0.2523	-0.0164	0.2359	1005.7802	0.114945	-453.965479	-453.958397	-453.957452	-453.997341	27.04	
O	 0.0383684299	-0.0493681115	-0.3996579204	-0.359084
C	-0.0040616908	 1.0645641134	 0.0480002383	 0.461314
N	-1.1748507264	 1.820850524	-0.025689599	-0.369009
C	-1.6020897437	 2.9563333264	 0.6659136708	 0.091235
N	-0.9496633445	 3.9444092155	 1.1123410551	-0.234707
C	 0.4465809264	 4.0774489473	 0.8699822556	-0.002302
C	 1.4715997382	 3.7073259984	 1.9181035461	-0.311708
C	 1.413843976	 2.9468967029	 0.6238260497	 0.065133
O	 1.035480624	 1.59348158	 0.7246230847	-0.235483
H	-1.9131996604	 1.2648608666	-0.434422828	 0.269102
H	-2.6853989111	 2.9586309261	 0.7943695201	 0.126784
H	 0.6639124659	 4.9931008054	 0.3236577057	 0.116613
H	 2.3020577047	 4.3771772921	 2.107554843	 0.125454
H	 1.0979154656	 3.1716095641	 2.7835550734	 0.139368
H	 2.2015539561	 3.0810493592	-0.1122422551	 0.11729
