20
gdb 40254	2.75169	1.61004	1.22158	2.4078	78.52	-0.2223	0.0798	0.302	1071.2327	0.172869	-403.108951	-403.101343	-403.100399	-403.140904	30.684	
C	 0.1241403124	 1.4868865267	-0.0000105474	-0.243103
O	 1.2261262511	 0.5773366218	-0.018582147	-0.281838
C	-0.1121632138	 0.0379575073	 0.0109550928	 0.419608
C	-0.4523004832	-0.6988940581	 1.2899000016	-0.289378
C	-0.0218156249	-2.1629951449	 1.1376095922	-0.205364
C	-0.7954458014	-2.8455738344	 0.004005379	-0.147814
N	-0.8068250882	-2.0994270051	-1.2718344241	-0.099412
C	-1.8884545642	-1.1442557167	-1.4842227824	-0.260126
C	-0.4989543245	-0.6600792684	-1.2610491169	-0.062986
H	 0.0010945687	 2.0578746739	 0.9204947928	 0.108682
H	-0.0297427314	 2.0549000116	-0.9173701828	 0.111292
H	 0.0682078782	-0.213143173	 2.1199868391	 0.110393
H	-1.5288896723	-0.6384045852	 1.4958565285	 0.099275
H	 1.0533715413	-2.1913988641	 0.9251613511	 0.120881
H	-0.1796764688	-2.7198947095	 2.0670772203	 0.097479
H	-0.358397686	-3.8298225941	-0.1978589418	 0.108637
H	-1.8312813946	-3.0215677285	 0.322871061	 0.097196
H	-2.3204160014	-1.1268943142	-2.4821917197	 0.113718
H	-2.6110617383	-0.9987419162	-0.6818377642	 0.104617
H	 0.0860977813	-0.3251121687	-2.1154425922	 0.098244
