18
gdb 120240	3.02988	1.11108	0.90956	3.0743	73.82	-0.2227	-0.025	0.1977	1322.1564	0.145946	-439.036685	-439.027772	-439.026828	-439.071254	32.055	
C	-0.0824427928	 1.5070433994	 0.0398288095	-0.386281
C	-0.1370935646	 0.0174696	-0.2468741837	-0.047352
O	-1.3325639337	-0.5011822252	 0.3301011531	-0.254713
C	-1.4895687926	-1.8671860637	 0.1446709721	 0.057966
C	-2.7582606687	-2.4990410468	 0.7155797753	-0.106024
N	-3.8847403303	-1.9617867235	-0.0515263002	-0.314558
C	-3.1137906991	-3.1330059457	-0.6047014871	-0.191827
C	-1.9084916474	-2.4838019236	-1.2474909349	 0.414158
O	-1.39191037	-2.5274394438	-2.3248831882	-0.312335
H	 0.8291138519	 1.9406168972	-0.3820493891	 0.116495
H	-0.9452369853	 2.0134431449	-0.4014571358	 0.132943
H	-0.0899894554	 1.6919656167	 1.1178109705	 0.124538
H	-0.1258479782	-0.176913302	-1.3276226748	 0.121474
H	 0.7364461788	-0.4968904472	 0.1882960427	 0.086142
H	-0.598135848	-2.4332448252	 0.4746741006	 0.086867
H	-2.8843114916	-2.9202797535	 1.7042041164	 0.111596
H	-4.7407829509	-2.3555346687	 0.3405484974	 0.242035
H	-3.604594062	-4.0721398792	-0.8232265238	 0.118877
