14
gdb 32399	6.47294	0.86848	0.76941	5.0937	73.79	-0.2413	-0.0375	0.2038	1371.295	0.102312	-432.911058	-432.902863	-432.901919	-432.944683	28.938	
O	-0.0350553281	 1.424080413	 0.0071898398	-0.420794
C	 0.0041405801	 0.0067113633	 0.0018180456	-0.192188
C	-1.4063546115	-0.4883676981	 0.012789607	 0.27135
C	-2.5603869567	 0.2640014147	 0.0236070769	-0.142955
N	-3.5854900794	-0.6422066659	 0.0307704553	-0.289106
C	-3.0216668957	-1.8896294063	 0.0235474716	 0.24293
N	-1.701583992	-1.8215650361	 0.0129134594	-0.340822
C	-3.8090644247	-3.0693964003	 0.0279977507	 0.235146
N	-4.4865052832	-4.0084877517	 0.0320076015	-0.336608
H	 0.8688389745	 1.7502005193	 0.0010625191	 0.296065
H	 0.5202940395	-0.3851340494	-0.8886269114	 0.114921
H	 0.5362438815	-0.3916082324	 0.8798817411	 0.114966
H	-2.7228565821	 1.3273303232	 0.0269169435	 0.16164
H	-4.5717153023	-0.4382466331	 0.03960432	 0.285456
