19
gdb 110308	2.51425	1.41042	1.36569	2.1841	70.2	-0.2369	0.0524	0.2892	1056.7287	0.16034	-460.118561	-460.110324	-460.10938	-460.150938	32.839	
O	-0.0479803267	 1.3363476658	 0.3632019288	-0.431445
C	 0.0267773724	 0.0291743439	-0.2324798306	-0.13864
C	-1.3483415695	-0.5995157039	-0.0507874324	-0.020253
C	-1.5056437452	-2.1205834401	-0.14617116	-0.143145
C	-0.8532542561	-2.842788608	 1.00282226	 0.127627
O	 0.3559520463	-2.4837055642	 1.6048764986	-0.439236
C	-2.1506520531	-2.1587280736	 1.2762017	-0.138593
C	-1.939346887	-0.6513305544	 1.401998959	 0.086942
O	-1.0736829187	-0.2690655061	 2.4675577483	-0.446327
H	 0.8173354803	 1.7504180754	 0.2912880818	 0.294766
H	 0.2716103426	 0.1056956984	-1.3017127356	 0.095949
H	 0.7946723547	-0.5797320978	 0.2534811007	 0.125415
H	-2.0634276428	-0.0855778109	-0.6994079574	 0.081509
H	-1.8260125324	-2.6488556247	-1.0369621517	 0.086859
H	-0.940412403	-3.9240536473	 0.914284793	 0.100172
H	 0.150998898	-1.7466812107	 2.2016942446	 0.295625
H	-3.0314866965	-2.6836049086	 1.625841384	 0.087759
H	-2.8829736365	-0.098710082	 1.4684143134	 0.082369
H	-0.6740822568	 0.5674818588	 2.1818975457	 0.292646
