20
gdb 8182	2.63548	2.5382	1.71004	1.6183	74.21	-0.2337	0.0842	0.318	863.1357	0.177741	-348.996208	-348.988701	-348.987756	-349.027273	30.296	
C	-0.0412453005	 1.535499875	-0.0166090501	-0.417939
C	 0.0804519793	 0.0218766267	 0.0560083014	 0.133677
O	 0.9403270742	-0.4806019206	-0.9990910152	-0.299506
C	 1.8856314899	-1.2703659079	-0.2603879033	 0.110618
C	 2.2853752411	-0.3474354126	 0.9129066484	-0.275314
C	 0.7833796335	-0.5886870605	 1.2928718614	 0.287757
C	 0.2081207985	-0.3000481786	 2.6588056649	-0.504878
C	 1.0030022813	-2.0424622605	 0.7462305881	-0.272058
H	 0.9120345331	 2.0333938846	 0.1808391985	 0.117619
H	-0.3737857787	 1.8310649968	-1.0160681201	 0.127805
H	-0.7802139546	 1.897973323	 0.7060518516	 0.112206
H	-0.9193361776	-0.4212284075	-0.0637668257	 0.067028
H	 2.5917828742	-1.7367903667	-0.9454283024	 0.075713
H	 2.9685845047	-0.8178295677	 1.6232803095	 0.095568
H	 2.6189429817	 0.6632056783	 0.6683629412	 0.09684
H	 0.2375854218	 0.7709200421	 2.8879336263	 0.121015
H	-0.8373380742	-0.6245251379	 2.723127913	 0.117385
H	 0.767253455	-0.822587074	 3.4415445604	 0.116911
H	 0.1399357821	-2.5809396279	 0.3450798008	 0.094983
H	 1.569442225	-2.6705312542	 1.4370432814	 0.094568
