19
gdb 1996	5.69889	1.48004	1.27191	1.6994	67.79	-0.2627	0.0884	0.3512	987.1741	0.17019	-310.905786	-310.897508	-310.896564	-310.93844	29.939	
C	 0.1054929024	 1.5674384772	 0.1025843521	-0.380061
C	 0.0308249481	 0.0369733531	 0.0073616423	 0.042606
C	 0.6914132633	-0.4655295555	-1.2829995445	-0.390827
C	 0.6538535062	-0.6530890151	 1.2368443846	-0.205983
C	-0.0741088641	-0.386113997	 2.5321140358	 0.093007
C	 0.6045779405	-0.3924350476	 3.8339140136	-0.18347
O	 0.2181995623	 0.837054867	 3.2185242631	-0.231401
H	 1.1490209258	 1.9037553877	 0.1227336892	 0.110792
H	-0.3771014416	 2.0336992319	-0.7629402394	 0.104324
H	-0.3760063517	 1.9434818198	 1.0081113516	 0.136947
H	-1.0309646225	-0.2497600714	-0.0264686759	 0.070236
H	 1.7604602376	-0.2211216137	-1.2953536068	 0.112436
H	 0.5975397535	-1.5519141534	-1.3871395484	 0.106935
H	 0.2369625592	-0.0025461382	-2.1649748514	 0.110586
H	 0.6625484777	-1.7394294948	 1.0714208711	 0.095377
H	 1.7000311695	-0.3401975573	 1.3487407753	 0.098449
H	-1.1383938537	-0.6335980618	 2.5244473672	 0.087114
H	 0.054193524	-0.659285222	 4.7352587454	 0.111765
H	 1.6778308534	-0.5758013691	 3.876433285	 0.111168
