20
gdb 126951	4.87736	0.80353	0.7033	1.8443	84.53	-0.1856	0.0362	0.2218	1649.0824	0.171659	-399.358173	-399.348304	-399.34736	-399.394649	34.998	
C	 0.0189429274	 1.5747913203	-0.0623201715	-0.395699
C	-0.1593027224	 0.0644253752	-0.1811472435	-0.109833
N	 0.8774334493	-0.5065490963	-1.0296818564	-0.382657
C	 0.8729782559	-1.8744295813	-1.2692007087	 0.415273
N	 1.3601045755	-2.3553422985	-2.4111539515	-0.335929
N	 1.2600846979	-3.7047935087	-2.2670909251	-0.254709
C	 0.7155506262	-4.0844315282	-1.0880123357	 0.392552
C	 0.5018885022	-5.5159081598	-0.7173029717	-0.504088
C	 0.4454244389	-2.9151665092	-0.4025128825	-0.38428
H	 1.0074947429	 1.8175714829	 0.3381320527	 0.128888
H	-0.0793612058	 2.0609996854	-1.0399069632	 0.115719
H	-0.7408958792	 2.0023554078	 0.5979020321	 0.117494
H	-0.0766926634	-0.3895772765	 0.8133955348	 0.110323
H	-1.1744887166	-0.1662861929	-0.5477902126	 0.08995
H	 1.0221289719	 0.0097783181	-1.8882323034	 0.231626
H	 1.5717035791	-4.2939090825	-3.0190510148	 0.263802
H	 1.4446854732	-6.0743760012	-0.6865197658	 0.134816
H	 0.0444626275	-5.5820761799	 0.2718982415	 0.140815
H	-0.1604312093	-6.0269440439	-1.4258633078	 0.133448
H	 0.0111308789	-2.8348342309	 0.5801234031	 0.092489
