12
gdb 709	7.66602	4.16292	4.02296	1.8604	48.16	-0.2318	0.0634	0.2952	409.078	0.09688	-269.144656	-269.140183	-269.139239	-269.172057	17.954	
C	 0.0096228793	 1.4753865751	-0.1421735978	-0.280084
C	 1.3232582945	 0.7635709148	 0.0420138199	-0.089154
C	 0.0153186994	-0.0175738391	 0.0510035384	-0.089168
C	 0.486268079	-0.7561654109	-1.2452289887	 0.023827
O	 0.7525078964	 0.2065620122	-2.2754804078	-0.238499
C	 1.7370887275	-0.0088182974	-1.2540099904	 0.023775
H	-0.3228913766	 2.042155173	 0.721436656	 0.111697
H	-0.2491704449	 1.8976681772	-1.104665344	 0.137703
H	 1.9977466745	 0.9544183362	 0.8656809799	 0.093586
H	-0.4641623789	-0.5158846539	 0.8826094534	 0.093578
H	 0.2412749526	-1.7655602137	-1.5525399576	 0.106369
H	 2.7388302171	-0.2733236236	-1.5700691012	 0.10637
