16
gdb 128058	4.50202	1.07462	0.87266	5.3456	73.51	-0.2137	-0.018	0.1958	1280.3015	0.127119	-430.280873	-430.272362	-430.271418	-430.314793	29.996	
C	-0.0102080298	 1.365482068	 0.0781384383	-0.310353
N	-0.032322499	-0.0692574925	-0.1032644458	-0.311627
C	 0.6313797205	-0.6561586642	-1.1418231193	 0.290331
N	 1.1875008839	 0.0334772137	-2.0678971175	-0.556514
C	 0.6331674838	-2.1408637232	-1.101592564	 0.324752
N	 0.0860159525	-2.8384859931	-0.1137145034	-0.28876
N	 0.3329704674	-4.1123197999	-0.4886147529	-0.179046
C	 1.0022481603	-4.1314929097	-1.6603783219	 0.020364
N	 1.2107584923	-2.9018618248	-2.0778988145	-0.306669
H	 0.9990110088	 1.7431910288	 0.2902804707	 0.125824
H	-0.3580716142	 1.861549625	-0.8320774584	 0.148501
H	-0.6726624152	 1.6290870666	 0.9056388943	 0.113562
H	-0.2872227982	-0.6606382121	 0.6689968572	 0.256254
H	 1.5908651582	-0.5983408343	-2.7579204657	 0.229561
H	 0.0215325412	-4.8777983245	 0.0873601615	 0.287552
H	 1.3061958575	-5.0419679938	-2.1544768687	 0.156268
