15
gdb 45836	2.40464	1.79299	1.11978	3.9357	70.38	-0.2445	-0.0121	0.2324	1037.4523	0.11435	-453.996325	-453.98874	-453.987796	-454.02893	28.422	
N	-0.2612089319	 1.355165366	 0.3376377859	-0.483591
C	-0.0596548371	 0.1810270722	-0.0684522572	 0.406865
C	-1.0728082144	-0.9218297679	 0.0647386473	-0.352397
C	-1.5155168774	-1.3916555443	-1.2965784554	-0.108569
C	-0.6595780094	-1.9577056074	-2.1448448779	 0.02492
N	 0.7011504857	-2.136270108	-1.8720800027	-0.362437
C	 1.5780711898	-1.3731997001	-1.1342258931	 0.442529
O	 2.7253969039	-1.6891616944	-0.9696725117	-0.352253
O	 1.138620085	-0.1494710474	-0.6853693367	-0.24696
H	 0.5404807889	 1.9544121039	 0.1337648655	 0.233996
H	-0.6188663282	-1.756645215	 0.6181994564	 0.138094
H	-1.9040920209	-0.5353648943	 0.65209796	 0.147548
H	-2.5417217939	-1.2332598826	-1.6028424634	 0.116851
H	-0.968583381	-2.3390142137	-3.1123144533	 0.123471
H	 1.1701017211	-2.924859107	-2.2930782438	 0.271933
