21
gdb 57399	3.0025	1.11657	1.00002	1.1825	80.89	-0.2288	0.0196	0.2484	1291.7188	0.180579	-424.23281	-424.223046	-424.222102	-424.267406	36.433	
C	-0.1859323358	 1.5075731859	-0.0229096394	-0.390675
C	 0.0194574459	-0.0141488774	 0.0089812988	 0.237664
C	 0.8264923296	-0.4225992572	 1.2554430748	-0.42623
O	-1.2979408965	-0.5617128475	 0.0904213629	-0.451502
C	 0.7046006397	-0.4805505245	-1.2567477845	 0.289525
C	 0.1530684246	-1.124257456	-2.2826043367	-0.243462
C	 1.1781190988	-1.3892714965	-3.3453491502	-0.10482
O	 2.3870055063	-0.8175933203	-2.8496779349	-0.268517
C	 2.1707635	-0.2647533106	-1.5567883178	-0.15887
H	 0.7694329465	 2.0332752368	-0.1024401705	 0.115312
H	-0.8092679096	 1.7805922199	-0.877597437	 0.128929
H	-0.6875156618	 1.8314980874	 0.8934518558	 0.122193
H	 0.278418085	-0.1278525316	 2.1543868431	 0.12482
H	 0.9801289193	-1.5073058599	 1.2828421925	 0.110623
H	 1.8109481404	 0.0548666418	 1.2772141218	 0.121137
H	-1.2100186815	-1.5213477517	 0.1113052313	 0.274397
H	-0.887072868	-1.4087399165	-2.3692193688	 0.106077
H	 1.3225441606	-2.4653103637	-3.5364578295	 0.101434
H	 0.9155686431	-0.9257155088	-4.3096802077	 0.105505
H	 2.4472623309	 0.8019093931	-1.5583668566	 0.104068
H	 2.8251721124	-0.7632210426	-0.8239056176	 0.10239
