18
gdb 110459	3.67423	1.18679	1.08051	2.5152	70.59	-0.2438	0.0603	0.3041	1143.5575	0.148028	-438.995327	-438.987357	-438.986413	-439.027854	30.915	
O	 0.0789533803	 1.3495240976	 0.2082210456	-0.422621
C	 0.1258973416	-0.0344897451	-0.0943910132	-0.089665
C	-1.2770652121	-0.6188737915	-0.0631264112	 0.05052
C	-1.6066194829	-2.1201849181	-0.1373746434	-0.164867
C	-2.72489932	-1.7842398956	 0.9266759267	-0.033162
C	-1.6559102826	-1.8748452328	 1.9466658638	-0.047471
C	-0.7985528407	-2.7474031186	 1.0360810056	 0.112774
O	-1.1382307876	-4.0971162505	 1.2866028004	-0.441393
N	-1.9622027306	-0.5575772946	 1.2825937967	-0.18262
H	-0.4566244215	 1.4359534007	 1.0062690479	 0.295798
H	 0.5513737429	-0.1258784535	-1.1006560841	 0.107379
H	 0.795539398	-0.5660757657	 0.5975961383	 0.08882
H	-1.9059301471	-0.0403643304	-0.7486067533	 0.092524
H	-1.7115379713	-2.6604809718	-1.0772792511	 0.072254
H	-3.8015344931	-1.8728511311	 0.9648380333	 0.104682
H	-1.7302201286	-1.9059324185	 3.0251894682	 0.10603
H	 0.2911118671	-2.6150810333	 1.038648052	 0.065792
H	-0.7013172218	-4.6396608873	 0.6223351578	 0.285227
