13
gdb 11159	5.65406	1.31241	1.07929	2.435	69.27	-0.2631	-0.0948	0.1684	1003.0939	0.096422	-361.517779	-361.510872	-361.509928	-361.549374	24.789	
O	-0.0307899681	-0.0223895685	 0.0038435127	-0.314243
C	-0.0175740618	 1.1838121099	 0.0099634911	 0.403697
C	-1.2434010075	 2.1113858685	 0.0318218886	-0.342744
C	-0.6841007298	 3.545122712	 0.0315563294	-0.32164
C	 0.8236851212	 3.3467882352	 0.0096212117	 0.203331
C	 1.1868225226	 2.0532786477	-0.0020705919	-0.273392
C	 1.7142708849	 4.4551171728	 0.0031066488	 0.231289
N	 2.4116305101	 5.3798364611	-0.0014895599	-0.314325
H	-1.8691078982	 1.8985008967	-0.8392466613	 0.148448
H	-1.8447192846	 1.8892982223	 0.9176504249	 0.148452
H	-1.0022136033	 4.1296636953	-0.837952345	 0.144192
H	-0.9779530604	 4.1204957665	 0.9155917222	 0.1442
H	 2.196158705	 1.6650208805	-0.0179320513	 0.142736
