22
gdb 5996	3.06769	1.15761	1.06297	2.0566	74.5	-0.2467	0.0756	0.3223	1252.1016	0.196928	-387.331269	-387.320674	-387.31973	-387.366629	38.078	
C	-0.0575050122	 1.3394239741	-0.1331653127	-0.242272
O	 0.0684088196	-0.0562723526	 0.0121753893	-0.275378
C	 0.742514964	-0.5540508207	 1.1803197283	 0.34952
C	 2.1698715036	 0.0109289979	 1.2922554943	-0.426304
C	-0.0597979594	-0.2268421157	 2.4504974095	-0.418271
C	 0.757353138	-2.0803544877	 0.9717310817	-0.20647
C	 1.4962002548	-2.5667917767	-0.2782190863	-0.075224
O	 1.4136330876	-3.9788349249	-0.4258954659	-0.421441
H	 0.9132599886	 1.846780719	-0.2217772322	 0.105747
H	-0.614539519	 1.5036723977	-1.0595610866	 0.125721
H	-0.6174426282	 1.8056213215	 0.6896578608	 0.104597
H	 2.1659275053	 1.0644341243	 1.5865498467	 0.113307
H	 2.7335241158	-0.5378688813	 2.0528458626	 0.118974
H	 2.7043920856	-0.0741286084	 0.3423290478	 0.126278
H	-1.0868606319	-0.5917717023	 2.3567365136	 0.118632
H	 0.3974527131	-0.7037361519	 3.3228909545	 0.116067
H	-0.0919860247	 0.8489372492	 2.6464216316	 0.11234
H	 1.1930552624	-2.562600933	 1.8537837637	 0.098325
H	-0.2872668184	-2.4131686011	 0.9070299342	 0.086896
H	 1.1115511391	-2.0426339607	-1.1625803157	 0.104885
H	 2.5663065998	-2.3493127176	-0.2056153116	 0.105492
H	 0.4880398264	-4.2015461791	-0.5675372577	 0.27858
