19
gdb 77463	2.39467	1.4853	1.19323	1.8351	71.98	-0.2248	0.052	0.2767	1109.3688	0.156805	-460.122803	-460.11326	-460.112315	-460.156397	36.166	
C	 0.0656983455	 1.5860571652	 0.0108199452	-0.501193
C	 0.10126671	 0.0882697006	 0.0068324416	 0.205463
C	 0.6201868622	-0.8113594772	-1.13031545	-0.339872
C	 1.2070352078	-1.8150208126	-0.0899308837	 0.059551
O	 2.6272019153	-1.8261546321	 0.000674754	-0.44341
C	 0.5869718751	-0.9870323853	 1.0224959096	 0.301333
O	 1.1003764986	-0.9246472013	 2.3007193063	-0.473323
C	-0.8720422725	-0.7510419647	 0.8290760329	 0.02134
O	-1.5013132128	-0.0896975636	 1.8868107182	-0.44431
H	 1.0611774598	 2.0203806322	-0.1381025203	 0.10392
H	-0.5827464392	 1.964626495	-0.7892832313	 0.120945
H	-0.3336444754	 1.9485728375	 0.9609236346	 0.13976
H	-0.1374541996	-1.2128201492	-1.8132853659	 0.103504
H	 1.4133609116	-0.3517997652	-1.7298860751	 0.100325
H	 0.9065631252	-2.8654735765	-0.1641857724	 0.087741
H	 2.9480957506	-0.9508016712	-0.2447563313	 0.282542
H	 2.0520939882	-1.0696815982	 2.2203947426	 0.294074
H	-1.517921091	-1.4878929517	 0.3425700946	 0.079634
H	-1.0103362893	-0.2950429818	 2.6918360504	 0.301977
