18
gdb 81389	2.68802	1.5384	1.2677	2.935	74.88	-0.2668	0.029	0.2958	1037.983	0.149443	-401.945664	-401.937995	-401.937051	-401.977695	29.926	
C	-0.3436951865	 1.5730839927	-0.1569449011	-0.447318
C	-0.0262859845	 0.0928250247	-0.0348995064	 0.037468
C	 1.1111516793	-0.6153084305	-0.8165580593	 0.056017
C	 2.3958049081	 0.1614353481	-0.4575090263	-0.252501
C	 2.1855109211	 0.1723422148	 1.0994774126	-0.134693
C	 2.2312025546	 1.4747927336	 1.7474406297	 0.262671
N	 2.2665487003	 2.5002200117	 2.2812629226	-0.33631
C	 0.7997385437	-0.5522283474	 1.1088673423	 0.031164
O	 1.0956097304	-1.6563305015	 0.2135006684	-0.289019
H	 0.5349165185	 2.2149226953	-0.0713997261	 0.142286
H	-0.8160842674	 1.775335138	-1.1242508587	 0.122151
H	-1.0473228882	 1.8806588064	 0.6231404516	 0.133732
H	-0.9300527619	-0.5106365039	-0.1505447255	 0.098989
H	 0.9992306125	-0.9886352287	-1.8340923048	 0.089573
H	 3.2943409142	-0.3891175087	-0.7383783673	 0.124687
H	 2.4412091556	 1.1606930561	-0.8943185617	 0.12628
H	 2.9133970325	-0.4763529182	 1.5928720958	 0.136898
H	 0.3885076677	-0.8400556725	 2.075677914	 0.097924
