17
gdb 70644	2.41748	1.65946	1.2109	6.0491	72.54	-0.2581	0.0186	0.2768	1052.5761	0.136634	-417.996072	-417.987952	-417.987008	-418.028779	30.414	
C	-0.1995634905	 1.3744445379	-0.0908344691	-0.502401
C	 0.0679510823	-0.0981903621	 0.0548837216	 0.291266
N	-0.6616107856	-0.9326302356	 1.0245250403	-0.34956
C	 0.7967530254	-0.751195315	 1.168000571	-0.116496
C	 1.5687965301	-1.913707726	 0.5881088945	-0.080602
O	 1.0285097544	-2.122011005	-0.7198623018	-0.266072
C	 0.428672937	-0.9228597654	-1.1851066084	-0.035614
C	-0.7326900591	-1.2516900994	-2.0238800935	 0.290911
N	-1.6479741623	-1.4432141545	-2.7014030318	-0.324505
H	 0.6237588211	 1.8792824647	-0.6072758299	 0.132716
H	-1.1147858589	 1.5486441104	-0.6668528706	 0.151758
H	-0.3219818175	 1.8451003604	 0.8893171938	 0.125571
H	-1.1502046124	-0.3281094415	 1.6815593831	 0.236166
H	 1.2026161141	-0.18396648	 1.9989821218	 0.10325
H	 2.6409217075	-1.6707471615	 0.5375588143	 0.101313
H	 1.4397142822	-2.8484678699	 1.1410876907	 0.128786
H	 1.1338336122	-0.3416103473	-1.8024471261	 0.113514
