20
gdb 40829	3.83829	1.08732	0.90337	1.6229	75.39	-0.2441	0.0823	0.3264	1298.2704	0.172798	-440.247067	-440.239053	-440.238109	-440.279867	30.845	
C	 1.3579458863	 0.0545751424	-0.3430965584	-0.223995
C	 0.5900308304	-1.0716745642	-0.9379157142	-0.223995
N	-0.0513185891	-0.1435091837	-0.0080084036	-0.071379
C	-0.3321717102	-0.656028486	 1.3249927988	 0.018267
C	-0.4076003558	 0.5038999188	 2.3274060051	-0.098913
O	-0.838977445	 0.0329361679	 3.5958294634	-0.234858
C	-2.0812719278	-0.6114394571	 3.4986499493	 0.017837
O	-2.0453982023	-1.7364259763	 2.661343726	-0.234857
C	-1.6884457241	-1.3746214041	 1.3352722493	-0.098912
H	 2.101598139	-0.196382098	 0.4116918553	 0.115245
H	 1.5835001444	 0.940417196	-0.929264307	 0.120129
H	 0.2446878249	-1.0231314298	-1.9662956218	 0.120129
H	 0.8216910034	-2.0735359287	-0.5797101823	 0.115245
H	 0.4383042561	-1.3660263016	 1.6746318891	 0.068994
H	 0.5699062213	 0.9700821647	 2.4764398857	 0.109907
H	-1.1003822596	 1.2678372609	 1.938023687	 0.099271
H	-2.3391462093	-0.9639632903	 4.4990364635	 0.117565
H	-2.8443000375	 0.102690632	 3.1315763899	 0.075144
H	-2.4484146997	-0.7092257191	 0.8938400893	 0.09927
H	-1.6582384354	-2.2977776538	 0.7505276658	 0.109906
