20
gdb 51232	3.35054	1.13312	0.9892	3.3984	81.08	-0.2506	0.0234	0.274	1265.0516	0.170812	-403.121377	-403.112552	-403.111607	-403.156838	32.34	
N	-0.0483511255	 1.2760886159	-0.2385387487	-0.444374
C	-0.0272162312	 0.0218327532	-0.0906845799	 0.103338
O	-1.1796979688	-0.6766489826	-0.0851920715	-0.235867
C	-1.064398838	-2.0770267682	 0.0845498611	 0.4349
C	-0.5166523425	-2.8924439588	-1.1171877771	-0.288237
C	-1.798583239	-3.7827414665	-1.0828981926	-0.224022
C	-2.3577534907	-2.9514535454	 0.1040898926	-0.081693
C	-1.9622495855	-3.4826586536	 1.509107941	-0.224075
C	-0.6819937516	-2.5893607452	 1.4989069168	-0.288253
H	 0.9015905745	 1.641598319	-0.2183790115	 0.226745
H	 0.8679336067	-0.600822198	 0.0411502315	 0.087454
H	-0.4470304919	-2.2825228318	-2.0207319339	 0.118096
H	 0.4397836046	-3.3985673903	-0.959237022	 0.096908
H	-2.3965043104	-3.7119687906	-1.9936933161	 0.110868
H	-1.6336719294	-4.84074084	-0.8632949578	 0.100889
H	-3.3512984521	-2.5191442369	-0.0086681804	 0.08056
H	-2.6676279283	-3.2152643791	 2.2984156656	 0.110869
H	-1.7863388839	-4.560353262	 1.5582068919	 0.100907
H	 0.2793449754	-3.1041826593	 1.5804949015	 0.096944
H	-0.7166058724	-1.7888928698	 2.2414094894	 0.118047
