19
gdb 39361	2.82713	1.77848	1.26321	1.7737	81.65	-0.2302	0.0029	0.2331	1029.2954	0.160908	-385.873638	-385.866326	-385.865381	-385.905047	29.77	
C	 0.1204429556	 1.4585714613	 0.396291967	-0.35236
C	 1.4979509589	 1.5433888707	-0.3707395321	-0.351763
C	 1.3198713707	 0.064468667	-0.7372801901	 0.395191
O	 1.4866829893	-0.5250901884	-2.0305822293	-0.298765
C	 2.1463550841	-1.13319127	-0.9091252149	-0.054631
C	 1.5486992888	-2.4252989686	-0.3812666047	-0.241839
C	-0.0057485948	-2.4200879534	-0.3235374389	-0.259095
C	-0.5766642466	-1.1567409949	 0.2948111693	-0.26813
C	 0.0505126027	-0.0175553767	 0.0273056224	 0.340127
H	 0.1657573214	 1.6759332192	 1.467070484	 0.115901
H	-0.664006312	 2.0806660985	-0.045314099	 0.119707
H	 1.4950296064	 2.2113067735	-1.2347637972	 0.121034
H	 2.3631066887	 1.7744199299	 0.2551212343	 0.111013
H	 3.2335155807	-1.0570339732	-0.9261961241	 0.090365
H	 1.8832787541	-3.2744960235	-0.9878712648	 0.108097
H	 1.9541570378	-2.5797776725	 0.6278323332	 0.105422
H	-0.3909781808	-2.5382440629	-1.3433601085	 0.129694
H	-0.338781718	-3.3015303023	 0.2337591701	 0.100348
H	-1.4545921766	-1.2229294239	 0.9313791731	 0.089683
