19
gdb 104904	2.06614	1.52589	1.01891	2.3492	78.57	-0.2585	0.0215	0.2801	1222.9146	0.154613	-422.974256	-422.963851	-422.962907	-423.009497	38.068	
C	 0.0200329718	 1.5037301435	-0.0509433055	-0.461584
C	-0.0196210133	-0.0016651596	 0.1251297993	 0.359155
C	-1.1033423212	-0.6824548402	-0.6848419054	-0.467204
O	 1.2530615878	-0.6665926303	 0.1054099116	-0.324331
C	 0.510163663	-0.6728263097	 1.351240884	 0.034899
C	 1.2261510321	 0.0706122211	 2.4735295444	-0.134259
O	 2.4431916976	-0.5712442137	 2.7956890421	-0.411572
C	-0.0137044356	-1.9589031736	 1.7561525379	 0.341149
C	-0.4558608318	-3.0054129989	 2.1491995393	-0.425415
H	 0.902312451	 1.9531921249	 0.403939233	 0.133565
H	 0.0382569722	 1.7414420894	-1.1199487851	 0.128728
H	-0.875060045	 1.9675736698	 0.376293576	 0.128805
H	-0.9422735567	-0.4875501938	-1.7503408839	 0.125447
H	-1.1051802284	-1.759994304	-0.5208719268	 0.144475
H	-2.0877440394	-0.2851063968	-0.4157190794	 0.123463
H	 1.3879874734	 1.117709778	 2.1918869644	 0.090843
H	 0.6120834776	 0.0526601666	 3.3786092565	 0.12009
H	 2.9368212869	-0.6524545587	 1.9708904801	 0.295038
H	-0.836341482	-3.9373521539	 2.4881886873	 0.198706
