23
gdb 59268	2.62219	1.25964	1.14521	1.4064	84.7	-0.2488	0.0746	0.3235	1234.3795	0.207194	-388.291824	-388.282623	-388.281679	-388.326077	35.577	
C	-0.0880031121	 1.5750029868	-0.1105619006	-0.401438
C	-0.2348047526	 0.0544139595	-0.0034918726	 0.119944
O	 0.1398059668	-0.5786024161	-1.2314247317	-0.431535
C	 0.5423040467	-0.4833439117	 1.1911836183	-0.044118
C	-0.0677085089	-1.1329807305	 2.4194697114	-0.05914
C	-1.4832655573	-1.6947184661	 2.3446133608	-0.215417
C	-1.5082386629	-2.6499690538	 1.1220345067	-0.22512
C	-0.0341941282	-3.0391189167	 0.8503160507	-0.202209
C	 0.809319665	-1.9461149473	 1.4935025206	-0.071064
H	 0.96473414	 1.8536842878	-0.2434237425	 0.104481
H	-0.6513692487	 1.9522405379	-0.9680193903	 0.11945
H	-0.4532896062	 2.0686655048	 0.7963813106	 0.115706
H	-1.2988292256	-0.1754806994	 0.0980488598	 0.087297
H	 1.1015558152	-0.5587774877	-1.282224168	 0.275268
H	 1.397262494	 0.1468489452	 1.4345886272	 0.074131
H	 0.2890235653	-0.8008530611	 3.3889988598	 0.075855
H	-1.6811954549	-2.2495546947	 3.2689394754	 0.09753
H	-2.2546673542	-0.9188253545	 2.2761241211	 0.095409
H	-2.1345545571	-3.5268855983	 1.3075961589	 0.091873
H	-1.9281010521	-2.1511086497	 0.2457676778	 0.118261
H	 0.2088055623	-3.9915360452	 1.3361867961	 0.091525
H	 0.1607284678	-3.1552691828	-0.2188673136	 0.108689
H	 1.8256145674	-2.2024633963	 1.7756505041	 0.074621
