18
gdb 85294	2.45007	1.67151	1.21789	5.2865	71.61	-0.2705	0.0172	0.2877	1067.3663	0.14721	-439.117245	-439.10884	-439.107896	-439.150073	31.672	
C	-0.0924471015	 1.5753937896	 0.0105753791	-0.405865
C	 0.0939787005	 0.0667593034	 0.0295176788	 0.065257
O	 0.9265004536	-0.343871464	-1.0680981679	-0.245113
C	 1.8681321327	-1.2503664218	-0.6661971646	 0.446127
O	 2.6138132134	-1.7880462799	-1.423028321	-0.339048
N	 1.8170369194	-1.4489697014	 0.7532043193	-0.210131
C	 2.2057003794	-0.1898568079	 1.4552575419	-0.302815
C	 0.7783065913	-0.531242858	 1.2602741887	 0.304971
C	-0.0892720017	-0.9989709335	 2.4000433465	-0.483115
H	 0.8635104013	 2.0936796905	 0.1218675971	 0.128897
H	-0.5493291567	 1.8906987325	-0.9309115417	 0.140607
H	-0.7514423651	 1.8807832689	 0.8294272435	 0.126861
H	-0.8801384308	-0.4242996577	-0.0979203863	 0.097216
H	 2.6699283064	-0.3528278304	 2.4224599273	 0.134709
H	 2.6577850328	 0.5950312803	 0.8554056853	 0.140047
H	-0.591652618	-0.1506597359	 2.8776168409	 0.128305
H	-0.8568768358	-1.6947892701	 2.0458849319	 0.133121
H	 0.5103800488	-1.5102837047	 3.1566150112	 0.139971
