15
gdb 124373	5.0639	1.05781	0.87979	3.6702	69.77	-0.2325	-0.0211	0.2114	1257.4272	0.113148	-453.997263	-453.989161	-453.988217	-454.031012	28.826	
C	-0.1620575425	 1.4876598794	 0.0378805689	-0.485428
C	 0.1368139615	 0.0145634017	-0.0247305429	 0.425861
O	 1.2310584854	-0.4879724303	-0.0227397665	-0.34122
O	-1.0275281655	-0.6916314339	-0.0856745453	-0.259346
C	-1.046833392	-2.0583218944	-0.1497584934	 0.48926
C	-2.1698189611	-2.8532436695	-0.2110208542	-0.356475
C	-1.6420851009	-4.1604262264	-0.2611146012	 0.011886
N	-0.3127813095	-4.1734622469	-0.2333463394	-0.239408
N	 0.0362238721	-2.8706952843	-0.1649738369	-0.253934
H	 0.7736008055	 2.0425826583	 0.0855825877	 0.158069
H	-0.7344443059	 1.7909300808	-0.843223087	 0.162023
H	-0.7748690209	 1.7079011944	 0.9164637722	 0.162027
H	-3.1958663346	-2.5274632061	-0.2177706537	 0.112972
H	-2.183297995	-5.0933928898	-0.3164644805	 0.115689
H	 0.9968506036	-2.573586043	-0.1292924076	 0.298024
