17
gdb 34320	2.33669	1.83255	1.33036	2.4064	79.72	-0.2294	0.0159	0.2453	1003.5501	0.137283	-380.812152	-380.804481	-380.803537	-380.844053	30.283	
C	-0.2180902597	-1.2861797875	-0.1503871826	-0.477534
C	-0.1527165814	-0.0877726631	-0.0731682352	 0.337948
C	-0.1081376785	 1.3564310939	 0.0127450096	 0.005059
C	-0.0869160114	 1.8903301186	 1.5031288034	-0.234923
N	 1.397425227	 2.0845107925	 1.363452023	-0.356039
C	 1.2610889351	 2.0231441808	-0.0170684748	 0.350455
N	 1.6705615877	 2.6103792335	-1.0597067384	-0.306595
C	 0.5957259733	 2.3385124034	-2.0591022989	-0.159747
C	-0.7054090288	 2.0776776463	-1.2210733032	-0.298516
H	-0.2603177728	-2.3449947721	-0.2182127964	 0.197371
H	-0.6358823931	 2.8303209317	 1.6233022399	 0.117649
H	-0.365436876	 1.1702017117	 2.2730729081	 0.128873
H	 1.8710456993	 2.873706443	 1.787960889	 0.245951
H	 0.4915756734	 3.2050758887	-2.717065445	 0.111459
H	 0.8486860812	 1.4743307106	-2.6867357664	 0.11756
H	-1.4602112274	 1.4903789929	-1.7471668032	 0.112752
H	-1.1450712178	 3.036475545	-0.9274669588	 0.108277
