23
gdb 65786	2.81034	1.2148	1.19275	0.0874	89.66	-0.234	0.0311	0.2651	1218.9123	0.20645	-351.156339	-351.147468	-351.146524	-351.189864	35.237	
C	-0.1079329637	 1.7898835357	-0.196356366	-0.472265
C	 0.1134808597	 0.2764722407	-0.1060307401	 0.303714
C	 1.112874814	-0.2289030678	-1.2005627331	-0.28893
C	 1.9652712253	-1.2434439833	-0.480416864	-0.061707
C	 1.7978389035	-1.1891291733	 0.8396995183	-0.061706
C	 0.803269625	-0.1285144247	 1.2402166171	-0.288935
C	-1.1765311064	-0.5374153256	-0.2361977677	 0.018981
C	-2.5042944959	-0.1191751358	 0.3410497569	-0.287703
C	-2.3141235862	-0.180993285	-1.158132752	-0.287706
H	 0.8473368059	 2.315099867	-0.0966688936	 0.112975
H	-0.5422905739	 2.0840102442	-1.1572412046	 0.114832
H	-0.7652388039	 2.1562069043	 0.5987799327	 0.114834
H	 0.5833712191	-0.6451952389	-2.0657375467	 0.100996
H	 1.7330224367	 0.5925133951	-1.5874087519	 0.094631
H	 2.6493989134	-1.9067027351	-0.9990145233	 0.086827
H	 2.3242819848	-1.8012451665	 1.5643089168	 0.086827
H	 1.3157924143	 0.7277941952	 1.7017523614	 0.094632
H	 0.0705861478	-0.4789434385	 1.9768118815	 0.100996
H	-0.9762322458	-1.6047054749	-0.1668003746	 0.084889
H	-3.1188688546	-0.8752026672	 0.8179058798	 0.106889
H	-2.593251818	 0.863926071	 0.7900589588	 0.110017
H	-2.2782424947	 0.7615254991	-1.6932720292	 0.110016
H	-2.7982102064	-0.9794355557	-1.7102407263	 0.106894
