20
gdb 81548	2.94124	1.53157	1.15961	0.8247	79.35	-0.2148	0.075	0.2898	1095.9773	0.170981	-403.035937	-403.027927	-403.026983	-403.06842	31.242	
C	-0.1093060728	 1.517789519	-0.0983315033	-0.338953
N	-0.1535086511	 0.0589604725	-0.0816643611	-0.097549
C	-1.2043978211	-0.6498784915	 0.7552530729	-0.105301
C	-0.300015035	-1.9050496119	 0.6207961549	-0.218203
C	 0.6111092129	-0.7022269225	 0.987547477	-0.105301
C	-0.4403221861	-0.330780055	 2.0721467516	 0.351851
C	-0.5154989186	 0.9374396639	 2.9456024987	-0.185959
O	-0.6907862026	 0.1509217686	 4.1379982193	-0.281769
C	-0.632173344	-1.0864195617	 3.4013253468	-0.160505
H	-0.2175262973	 2.0356209403	 0.8638191071	 0.108463
H	 0.8456456	 1.8260832596	-0.5373559068	 0.122929
H	-0.903985121	 1.8765182475	-0.761293437	 0.122929
H	-2.272152202	-0.5548826562	 0.5459571692	 0.080824
H	-0.4178798552	-2.6948341816	 1.3640152856	 0.10119
H	-0.1808005666	-2.2791983931	-0.3952542139	 0.108031
H	 1.7007880501	-0.6694356625	 1.0542923172	 0.080823
H	 0.3969560489	 1.5463049502	 2.9896672548	 0.105472
H	-1.3736102968	 1.5974151661	 2.7630964556	 0.105474
H	-1.5612149077	-1.6650202337	 3.4940929002	 0.102778
H	 0.2093300861	-1.716031498	 3.7206435711	 0.102777
