13
gdb 20501	9.1155	0.97448	0.88523	3.4568	72.1	-0.2349	-0.0231	0.2117	1239.0891	0.095363	-361.436974	-361.429514	-361.42857	-361.47078	25.468	
C	-0.0357585755	 1.4822076966	 0.0103938496	-0.50882
C	 0.0016559343	 0.028423854	 0.0026762462	 0.19782
C	 0.0375097917	-1.177049156	-0.003745462	-0.107314
C	 0.0542511391	-2.5884126557	-0.0111085651	 0.059394
C	 1.1216070439	-3.4429550472	-0.0218764482	-0.04245
O	 0.7120540142	-4.7148037446	-0.0259365345	-0.157737
N	-0.6816469861	-4.7461113565	-0.0178015003	-0.118689
C	-1.0558142005	-3.49486652	-0.0091953096	-0.084401
H	 0.9760670203	 1.9016320996	 0.0025663777	 0.154652
H	-0.5640050557	 1.8711495149	-0.8672397114	 0.154355
H	-0.5466317478	 1.8622425428	 0.9021058118	 0.154349
H	 2.1877933341	-3.2813445543	-0.0273976432	 0.158728
H	-2.1084678821	-3.2518468835	-0.0016914909	 0.140113
