19
gdb 100493	3.85659	0.55244	0.49799	1.8151	82.59	-0.2475	-0.0281	0.2193	2141.8418	0.155318	-423.005239	-422.994196	-422.993251	-423.044176	37.162	
C	 0.0349100526	 1.5596144627	 0.1069163817	-0.383238
C	-0.0458703071	 0.0249918199	-0.0090578186	-0.138622
C	-1.5016526144	-0.4699352767	 0.0388104399	-0.068138
O	-2.0403417595	-0.0890248628	 1.2938967732	-0.419222
C	 0.6112226528	-0.4626742293	-1.2201661423	 0.072817
C	 1.137427031	-0.8386913453	-2.236720693	 0.036017
C	 1.7674246797	-1.3588147253	-3.4418966735	-0.414224
C	 1.7984679884	-2.8886672067	-3.4634265293	 0.172939
O	 1.6110892287	-3.5462064061	-4.4502904906	-0.231408
H	 1.0753627883	 1.8910979194	 0.1495892674	 0.120208
H	-0.4376738515	 2.0348397157	-0.7585623155	 0.11924
H	-0.4822351363	 1.8863364152	 1.0110713645	 0.137173
H	 0.4590146097	-0.4117161705	 0.8636087322	 0.114474
H	-2.0622686177	-0.0237112645	-0.7972175049	 0.095491
H	-1.5177173213	-1.5617142808	-0.0923314477	 0.09676
H	-2.9676392323	-0.3413196898	 1.3147631638	 0.290977
H	 1.2742536731	-1.0148043117	-4.3569631064	 0.152383
H	 2.814508254	-1.0222421722	-3.4979937028	 0.153974
H	 2.0239354318	-3.3526592912	-2.4785386883	 0.092399
