19
gdb 40041	3.61476	1.42717	1.22998	1.4466	80.65	-0.2258	0.0186	0.2444	1066.8516	0.160392	-385.868759	-385.861421	-385.860477	-385.900509	29.698	
C	 0.5086505732	 1.6046543035	-0.1753696516	-0.335686
C	 1.4644212103	 0.4698455093	 0.1829242386	-0.343695
C	 0.0174566452	 0.203199903	-0.0778967237	 0.478504
O	-0.8650901465	-0.2201940606	 0.9634694072	-0.323549
C	-1.4139638664	-1.2669812733	 0.1220566831	 0.119004
C	-2.9117777154	-1.0857401895	-0.1625686915	-0.276693
C	-2.9237800566	-0.2900922033	-1.4485517066	-0.060405
C	-1.705989777	-0.1144157182	-1.962986938	-0.071667
C	-0.6297212041	-0.7278164575	-1.1078405353	-0.224749
H	 0.2202640064	 2.2818936686	 0.6214732887	 0.123953
H	 0.5873779314	 2.0651136647	-1.154862681	 0.11281
H	 2.1958094073	 0.1538948506	-0.5545261803	 0.110547
H	 1.7993823763	 0.4085834634	 1.2129269046	 0.122477
H	-1.1463768428	-2.256075798	 0.5061523331	 0.075916
H	-3.432031471	-2.0467712446	-0.2722872073	 0.102545
H	-3.3895862613	-0.5577661267	 0.671307772	 0.122334
H	-3.8418148733	 0.0839825602	-1.8891468958	 0.094523
H	-1.4876883304	 0.4246411483	-2.8781426777	 0.093276
H	 0.0536235348	-1.39405591	-1.6403225685	 0.080556
