19
gdb 47858	2.26219	1.7788	1.15664	3.7249	78.11	-0.221	0.0019	0.2229	1086.2351	0.163138	-419.243045	-419.235048	-419.234103	-419.275602	31.139	
O	-0.3365788462	-0.1874458624	 0.7214558454	-0.369543
C	-0.0472752628	 0.9134939356	 0.3054670842	 0.400713
N	-0.9673150753	 1.8017521895	-0.2608033381	-0.327829
C	-1.9862654896	 2.2689125369	 0.6853180904	-0.170334
C	-1.3374937878	 3.0001155198	 1.8710034698	-0.211613
C	-0.3721996614	 4.1269464726	 1.4515639317	-0.269375
C	 1.0109267085	 3.82476482	 0.9046642487	-0.06267
C	 1.6653583272	 2.7314324459	 0.4824351879	-0.028303
N	 1.2548019113	 1.3969437848	 0.3351514173	-0.341755
H	-0.4970740242	 2.5884516747	-0.6917330184	 0.239235
H	-2.6698978544	 2.9318516565	 0.1449016675	 0.104114
H	-2.5607075061	 1.4047006062	 1.0272051457	 0.136322
H	-2.124916872	 3.4362735703	 2.4971985563	 0.096488
H	-0.8116565215	 2.2725384829	 2.5005962656	 0.12337
H	-0.8900171568	 4.7851011525	 0.7339605089	 0.108549
H	-0.2049423043	 4.7674374494	 2.3276786246	 0.117159
H	 1.6235690877	 4.7229045621	 0.8514279796	 0.09318
H	 2.7054642467	 2.8595749443	 0.1939787195	 0.107559
H	 1.9383275208	 0.6863928785	 0.5543167735	 0.254733
