15
gdb 30248	4.65945	1.13164	0.94949	2.2002	69.63	-0.2034	0.0126	0.2159	1170.7196	0.114123	-453.938962	-453.931411	-453.930467	-453.971097	28.693	
O	 0.3784654915	 1.2740850813	 0.4552460542	-0.41743
C	 0.1487219094	-0.0207026119	-0.0177064913	 0.024416
C	-1.3179974618	-0.6325180122	 0.1071326694	-0.212558
N	-1.3000152595	-0.7384272323	-1.3674065793	 0.023588
C	-1.6552846591	-1.3748677394	-2.537907233	-0.264621
C	-0.547006144	-1.1531404971	-3.3457184729	 0.335682
O	-0.4355871441	-1.5084561937	-4.6425015184	-0.429436
N	 0.4732944946	-0.4952461804	-2.703251382	-0.43997
C	-0.0428905994	-0.272374175	-1.5081873844	 0.270627
H	-0.1073655292	 1.889845906	-0.1050377391	 0.28843
H	 0.8999496794	-0.657758829	 0.4567153161	 0.122283
H	-1.37154098	-1.5981063708	 0.6177097779	 0.134063
H	-2.07973712	 0.047915341	 0.4964327828	 0.126001
H	-2.612989432	-1.8196983776	-2.7381760266	 0.135464
H	 0.4464794643	-1.2339153688	-4.9217939133	 0.303461
