17
gdb 76601	2.49654	1.08203	1.00998	5.2144	76.46	-0.2568	-0.0813	0.1755	1287.4842	0.133549	-417.998031	-417.98842	-417.987476	-418.03291	33.655	
C	 0.4135682181	 1.8769240795	-0.6322482728	-0.421042
C	-0.0030402853	 0.4226273594	-0.6514958106	-0.00609
C	 0.9026980257	-0.6143213376	-1.2847840671	-0.147687
N	 0.6118664317	-0.6139908007	 0.1478909845	-0.089057
C	 1.7088546103	-0.3179520177	 1.0614837038	-0.321967
C	 0.3721251729	-1.7362355574	-2.0983625348	 0.32197
O	 0.8399924044	-2.0927129731	-3.1520382553	-0.280953
C	-0.8260210681	-2.4162112754	-1.54993516	 0.236393
N	-1.7756528072	-2.962545116	-1.1809783618	-0.323738
H	 1.4971857698	 2.0077245532	-0.6090996682	 0.129999
H	 0.0334944808	 2.3814888843	-1.5255700811	 0.140601
H	-0.0118198943	 2.3827856815	 0.2411154885	 0.13806
H	-1.075376611	 0.2708945275	-0.7701850205	 0.119665
H	 1.870687087	-0.2576613951	-1.6331539494	 0.111624
H	 2.4307700491	 0.4212303811	 0.686738871	 0.112246
H	 1.2908012876	 0.0499787172	 2.0029069148	 0.138394
H	 2.2471627286	-1.2470605005	 1.2674323588	 0.141582
