14
gdb 15327	3.25123	1.30277	0.98956	2.1408	72.96	-0.2459	0.0094	0.2552	1162.1806	0.103668	-345.316772	-345.308049	-345.307105	-345.352048	29.841	
C	 0.1553274047	 1.5203765479	 0.0213123108	-0.502907
C	 0.0803706593	 0.0682788809	 0.0105136892	 0.153281
C	 0.005890077	-1.133509656	 0.0108829469	 0.072491
C	-0.0401779748	-2.5667891868	-0.013509084	-0.17335
O	-0.498858891	-3.2531341263	 1.1594822467	-0.229136
C	-1.3201010803	-3.3316029745	-0.0098533101	-0.158115
C	-2.6021831842	-2.6851823412	 0.0204665621	 0.347021
C	-3.6923547508	-2.1798578664	 0.0184504825	-0.411352
H	 1.1919778435	 1.866123236	-0.0532316392	 0.15295
H	-0.4031199282	 1.9518935316	-0.8165179569	 0.154054
H	-0.2668193299	 1.9261743825	 0.9469858479	 0.157877
H	 0.8054682082	-3.054750724	-0.4992370271	 0.115916
H	-1.3071954019	-4.3081234717	-0.4946918959	 0.119025
H	-4.6514015116	-1.7236285121	 0.0255488571	 0.202244
