17
gdb 68949	2.64538	1.62617	1.31259	3.9079	73.43	-0.254	-0.0396	0.2144	1013.8801	0.133975	-421.783149	-421.775069	-421.774125	-421.815665	30.68	
C	 0.2267715335	 1.430694827	 0.1133675577	-0.497034
C	-0.0310085683	-0.0406681961	 0.096891219	 0.344813
O	 1.0234127705	-0.8968728034	-0.3108781658	-0.299462
C	 0.4987905892	-1.1313969145	 1.0024546734	 0.242386
C	 1.3751264697	-0.9448331498	 2.1764104623	 0.066259
O	 2.4229468562	-0.3457052266	 2.1687421991	-0.266444
C	-0.8090277882	-1.8863444846	 0.8971327997	-0.147392
C	-1.9470031088	-1.0013886725	 1.34232752	-0.29337
C	-1.3503297555	-0.7843607796	-0.0236098196	-0.118509
H	 1.2044900232	 1.6314912811	 0.557636915	 0.162366
H	 0.2239811603	 1.8266850375	-0.9083040862	 0.138178
H	-0.547188994	 1.9547076659	 0.6816788081	 0.128444
H	 0.9610246862	-1.3892612598	 3.1091636377	 0.080822
H	-0.9122230923	-2.9556585212	 0.7651501683	 0.108292
H	-2.9262817088	-1.4700783962	 1.3588298977	 0.124602
H	-1.7952462788	-0.2682695872	 2.1297919053	 0.118286
H	-1.9180534741	-0.9131340798	-0.9366166415	 0.107762
