17
gdb 75809	3.32479	1.25912	1.07229	2.6294	70.41	-0.2477	0.0184	0.2661	1129.5445	0.135573	-455.103029	-455.094518	-455.093574	-455.136526	31.391	
O	 0.3241940353	 1.1359516828	-0.3653586256	-0.427902
C	 0.1810032875	-0.2171578494	-0.0395364421	-0.019739
C	 0.1452058573	-0.5310322678	 1.4551240955	 0.354796
N	 0.9037072265	-0.1284652564	 2.3827519964	-0.561074
N	-1.0310091771	-1.2505853588	 1.308014058	-0.387904
C	-1.2727373219	-0.8000977442	-0.0647264548	 0.27377
C	-2.4538293112	 0.1084456546	-0.4512997365	-0.123373
O	-2.8034476227	-0.7673774272	-1.5442707658	-0.271105
C	-1.8117565258	-1.7383447155	-1.1546946164	-0.136223
H	 0.7570478794	 1.5571934101	 0.3878115768	 0.304317
H	 0.8826730398	-0.8413619448	-0.6080593071	 0.101143
H	 0.5744462915	-0.4014047484	 3.3097334601	 0.215868
H	-1.7207364695	-1.4630459849	 2.0163433877	 0.242813
H	-3.2501770317	 0.1683100788	 0.3038819828	 0.092185
H	-2.181344598	 1.1146980692	-0.7843621821	 0.130731
H	-1.1231131636	-1.9850362378	-1.9719377105	 0.111711
H	-2.2615506558	-2.6637288202	-0.7692952762	 0.099986
