21
gdb 69159	2.09397	1.66629	1.35028	3.3054	83.03	-0.2306	-0.0048	0.2258	1101.0282	0.180452	-387.097457	-387.087944	-387.087	-387.130936	36.459	
C	-0.0674772403	 1.5456263004	 0.103282607	-0.499874
C	 0.0212208716	 0.0470888095	 0.0290087845	 0.335562
C	-0.8291811164	-0.848718665	 0.8598357176	-0.343534
C	 0.6834287504	-0.9263589612	 1.048140016	-0.239072
C	 1.2558364513	-1.6969193255	-0.0967606301	 0.416128
O	 2.0533147974	-2.5892583797	-0.1909780676	-0.340896
C	 0.61884702	-0.7557915334	-1.1669266605	 0.10957
C	-0.3371580263	-1.3608211749	-2.1935927823	-0.45516
C	 1.7641226142	-0.0131069956	-1.8697486186	-0.437458
H	 0.8775628468	 2.0260412609	-0.1670763877	 0.126564
H	-0.8398250733	 1.9260340653	-0.5759312142	 0.126536
H	-0.3334111975	 1.8711703315	 1.1140680544	 0.122087
H	-1.3438682093	-0.3724272743	 1.6891950257	 0.120953
H	-1.3697455142	-1.6907071493	 0.4387842566	 0.121486
H	 1.1429219707	-0.7438947823	 2.0123441963	 0.105413
H	-1.1926448304	-1.858818813	-1.7301360766	 0.115889
H	-0.7238047187	-0.5899217751	-2.8701655733	 0.114673
H	 0.1891786595	-2.1037016454	-2.8017464216	 0.132927
H	 2.3162282606	-0.7055441261	-2.511328141	 0.13416
H	 1.3770380839	 0.7996956129	-2.4937846991	 0.114346
H	 2.4741707501	 0.4138876803	-1.1543744754	 0.1197
