18
gdb 69243	2.66229	1.69808	1.24399	3.6661	78.08	-0.2366	-0.0016	0.235	1040.0622	0.148293	-401.968878	-401.960974	-401.96003	-402.001034	30.842	
C	-0.2180728454	 1.4642324238	 0.0309857108	-0.454666
C	 0.0651576872	-0.0232313822	-0.0776162187	 0.270096
C	 1.4991289379	-0.494244553	-0.0432519597	-0.276112
N	 0.6250758613	-0.6609449182	 1.1100241996	-0.125001
C	 0.1982518077	-1.9412471538	 1.4933871575	 0.366612
O	 0.951386601	-2.7824025369	 1.9194270314	-0.330525
C	-1.296716175	-2.1551406098	 1.2817880723	-0.362127
C	-1.621922973	-1.798174966	-0.1560078043	-0.076015
C	-0.9669489827	-0.8262916036	-0.791916332	-0.127228
H	 0.5616626462	 1.9646216004	 0.6106914944	 0.131126
H	-0.2581380489	 1.9197131995	-0.9642737593	 0.123047
H	-1.180267435	 1.6411270902	 0.5218730874	 0.127906
H	 1.7635029688	-1.3946145351	-0.590887689	 0.13397
H	 2.2981560253	 0.2351391866	 0.0635237346	 0.122093
H	-1.5275178512	-3.1977470572	 1.5071942812	 0.134407
H	-1.8734104909	-1.5300701716	 1.9764191535	 0.136648
H	-2.3891793526	-2.3766561703	-0.6621925174	 0.106148
H	-1.2031902407	-0.5583176328	-1.8178370922	 0.099622
