20
gdb 8030	3.28864	1.8601	1.47758	1.3557	74.42	-0.2467	0.0737	0.3205	935.2326	0.17705	-348.982143	-348.974102	-348.973158	-349.014187	31.422	
C	-0.2002977157	 1.5450573857	 0.0353226085	-0.494946
C	 0.0309830154	 0.0503131622	 0.0236550672	 0.389772
C	-1.1861813982	-0.894788353	 0.1876078643	-0.273286
C	-0.3607237394	-1.7899438843	 1.1589632541	-0.227518
C	 0.7873009753	-0.7420759875	 1.1656692413	-0.088153
C	 1.9360680049	-1.0434128117	 0.190518597	 0.145213
O	 2.3430293518	-2.3942454402	 0.1714287142	-0.43249
C	 1.0839132161	-0.494591943	-0.9953022961	-0.33746
H	 0.7441790505	 2.1002374319	 0.0754943103	 0.109838
H	-0.7319098803	 1.8668986804	-0.8693403551	 0.114327
H	-0.8033604142	 1.8483826135	 0.8987011778	 0.111516
H	-2.0231689455	-0.3999712783	 0.6906586529	 0.091787
H	-1.5662036973	-1.3626590527	-0.7263710859	 0.089251
H	-0.8271929826	-1.954932511	 2.1321029615	 0.096422
H	-0.0561757317	-2.7573924574	 0.7560466746	 0.118927
H	 1.0471143841	-0.3079468976	 2.1327129688	 0.055364
H	 2.7923006425	-0.382161191	 0.3894462444	 0.062373
H	 3.0017026156	-2.5011656762	-0.5220120378	 0.281797
H	 0.6982898887	-1.2845077645	-1.6469360052	 0.095669
H	 1.57521479	 0.2622863547	-1.6131185268	 0.0916
