16
gdb 1271	5.66482	1.4013	1.20323	1.2514	58.74	-0.2714	0.0271	0.2984	986.6162	0.135552	-362.917261	-362.909041	-362.908097	-362.950291	28.474	
C	-0.2182576382	 1.3907684716	-0.0814375781	-0.442098
C	 0.0584910025	-0.084152404	-0.0241208972	 0.414752
N	 1.236968485	-0.5488114843	-0.0085380281	-0.514624
O	-1.1189789147	-0.7768339596	 0.0100729353	-0.2571
C	-1.0714133404	-2.2035638716	 0.0389777183	-0.100455
C	-2.5158612599	-2.6782990772	 0.0206005413	-0.066668
O	-3.1901960583	-2.2682702276	-1.1502536573	-0.416252
H	 0.7230121006	 1.9379737289	-0.0920637925	 0.150812
H	-0.795640375	 1.6337904314	-0.9791188921	 0.136628
H	-0.8159599364	 1.6980570811	 0.7823106351	 0.139187
H	 1.2635612412	-1.5664860835	 0.0318976039	 0.21828
H	-0.5376232261	-2.5768297471	-0.8443883961	 0.120105
H	-0.5558912773	-2.552198963	 0.9442007268	 0.11045
H	-2.5351795833	-3.7727563004	 0.0355442736	 0.116235
H	-3.0229143826	-2.3194311993	 0.9299313684	 0.099689
H	-3.090521697	-1.3109161454	-1.2003593412	 0.291057
