13
gdb 11318	4.85717	1.58364	1.2031	2.4836	67.47	-0.2745	-0.0877	0.1869	938.4249	0.09572	-398.654344	-398.647372	-398.646428	-398.685906	24.883	
C	-0.0432658345	 1.4406463516	 0.0786588171	-0.344357
N	-0.0306496596	-0.00740783	 0.1755825049	-0.303103
C	-1.1024169929	-0.6602084918	 0.06675839	 0.435962
O	-2.3626417625	-0.119047131	-0.1470597659	-0.236709
C	-3.2894029427	-1.1591590194	-0.2099383965	 0.422855
O	-4.4530186851	-0.960765595	-0.3875794392	-0.316461
C	-2.5379766206	-2.4225902538	-0.0207345469	-0.236264
C	-1.2462695161	-2.1183596002	 0.1420653766	-0.146968
H	 0.6272384898	 1.7390250717	-0.7349540217	 0.141519
H	-1.0329139653	 1.8759304832	-0.0901786081	 0.141374
H	 0.3813954894	 1.8531805238	 1.0006222794	 0.141521
H	-3.02418801	-3.386275835	-0.0262905323	 0.149445
H	-0.4008473697	-2.7705589541	 0.3044779326	 0.151185
