24
gdb 98189	2.92372	0.98367	0.89012	3.2073	86.63	-0.2377	0.0379	0.2756	1483.2448	0.214598	-405.593552	-405.581705	-405.580761	-405.631424	42.114	
C	-0.1114150457	 1.5704217125	 0.0996852118	-0.415205
C	-0.0257588833	 0.047105145	-0.0425581498	-0.160251
C	 0.7371117054	-0.4855106092	-1.2809662635	 0.120173
C	 0.0549583317	-0.0161851815	-2.5843530266	-0.414433
C	 2.2087342085	-0.0184610847	-1.2566856725	-0.414405
C	 0.6910792605	-2.0367285273	-1.2090759306	 0.410518
O	 0.133143108	-2.6362922334	-0.3056679666	-0.385696
N	 1.3203574454	-2.6925369458	-2.2300741134	-0.309861
C	 1.3721819463	-4.138350884	-2.3178919461	-0.334453
H	 0.873854523	 2.0389721717	 0.1876774314	 0.11337
H	-0.6311948094	 2.0410658648	-0.7407702857	 0.11336
H	-0.6700286618	 1.8253775898	 1.0057910182	 0.116239
H	 0.4440401125	-0.3764498737	 0.850403663	 0.107161
H	-1.0354114596	-0.3744713928	-0.0617985348	 0.107155
H	 0.0712408408	 1.0749718458	-2.658881812	 0.120937
H	 0.5550758085	-0.4048790276	-3.4770356582	 0.098541
H	-0.9894145944	-0.3425002886	-2.6215155279	 0.125377
H	 2.7105760331	-0.3461892839	-0.3405383327	 0.125368
H	 2.781008015	-0.4074828774	-2.1047608089	 0.098547
H	 2.2696766518	 1.0726371817	-1.3039527326	 0.120921
H	 1.7661380255	-2.1554424868	-2.9533295089	 0.241369
H	 2.4054872641	-4.5038141368	-2.3026803673	 0.12203
H	 0.8416244089	-4.5343666994	-1.4516042313	 0.171186
H	 0.8875429751	-4.5022532884	-3.2313004551	 0.12205
