25
gdb 116892	3.9437	0.50865	0.46473	0.208	100.4	-0.2379	0.062	0.2999	2508.1059	0.226417	-352.350214	-352.338199	-352.337255	-352.389748	42.1	
C	-0.0305376682	 1.5785687314	 0.0461825002	-0.381248
C	 0.0046884122	 0.0493359004	 0.0196319257	-0.150819
C	 0.7036113897	-0.5011232705	-1.2403423685	-0.335722
C	 0.7469979976	-1.9591096106	-1.2874512499	 0.03529
C	 0.7594821195	-3.1643727006	-1.3029004351	 0.104058
C	 0.8083066869	-4.6275235066	-1.3243274273	-0.142923
C	 1.468836389	-5.1291261284	-2.6249358382	-0.381328
C	 1.5098782988	-5.1632811194	-0.0514167576	-0.154661
C	 1.4380604833	-6.6839430438	 0.1130073458	-0.393586
H	 0.9808929984	 2.0000209918	 0.0296888579	 0.114698
H	-0.5689955673	 1.9787939101	-0.8202852817	 0.114768
H	-0.5297485238	 1.9477049678	 0.947168793	 0.113203
H	 0.5233973704	-0.3318788035	 0.906414823	 0.106593
H	-1.0138227779	-0.3525867923	 0.0626791901	 0.106924
H	 0.1899550305	-0.1182223875	-2.133087458	 0.12145
H	 1.7251158479	-0.0992430385	-1.2895292638	 0.121107
H	-0.2264937002	-5.0016833862	-1.3097481886	 0.095684
H	 1.4314277911	-6.220038925	-2.691031158	 0.112987
H	 0.9582434701	-4.7179651657	-3.4996092104	 0.122019
H	 2.5168806446	-4.8156817924	-2.668624037	 0.120446
H	 2.5563688147	-4.8344781555	-0.0654129125	 0.101485
H	 1.0497023606	-4.6810644057	 0.8178770842	 0.10376
H	 0.3995133473	-7.0345227859	 0.109344158	 0.113483
H	 1.9697812222	-7.211088376	-0.6847842185	 0.119216
H	 1.8869463627	-6.9906780074	 1.0627959473	 0.113117
