15
gdb 123706	4.11434	1.62437	1.26897	0.7115	70.65	-0.2068	0.0195	0.2263	940.8081	0.116238	-416.793993	-416.787735	-416.786791	-416.824385	25.676	
C	-0.0119882399	 1.4715087479	 0.1044024719	-0.318836
C	 1.2872820167	 0.7323516506	 0.0096206513	 0.08119
O	 2.0305862517	 0.4867865924	 1.2085892871	-0.280837
C	 1.2434716669	-0.34108354	 1.9520527032	 0.280575
C	 1.2637218329	-0.9735206433	 3.1684393537	-0.204134
N	 0.0994071076	-1.7072479921	 3.173630155	-0.192007
N	-0.6564831135	-1.5729050493	 2.0584108306	-0.336436
C	 0.052780403	-0.731489675	 1.3204193024	 0.296013
C	-0.0280109083	-0.0540255818	 0.0096601166	-0.209208
H	-0.289755332	 1.9248621777	 1.0493016194	 0.131495
H	-0.3154036186	 2.0235956544	-0.7786150886	 0.121465
H	 1.937706731	 0.8392409403	-0.8488370174	 0.110831
H	 1.9558313025	-0.9924291469	 3.992634094	 0.13692
H	-0.2249284395	-2.3158948086	 3.9042906724	 0.274099
H	-0.4230044004	-0.5421204263	-0.8725566814	 0.108871
