19
gdb 55760	3.4682	1.09307	0.96257	2.4939	76.11	-0.2385	-0.0137	0.2248	1274.2734	0.157033	-423.012577	-423.003521	-423.002576	-423.047595	33.059	
C	 0.0716112884	 0.6107864393	 1.0259136923	-0.481801
C	-0.0065438405	 0.1298303218	-0.408103652	 0.382332
O	 0.8508978054	 0.3610393602	-1.2275097554	-0.299018
C	-1.2367172059	-0.7144838596	-0.7698401146	-0.408542
C	-1.0205994338	-2.1451261298	-0.3651056615	 0.421881
C	-0.0692551135	-3.1847626566	-0.9869151326	-0.280203
C	-1.0481484029	-4.3068680546	-0.4894945614	-0.239023
C	-1.9316523174	-3.2044486906	 0.1085244891	-0.049093
O	-1.1148738153	-2.469814463	 1.0339629383	-0.288796
H	 1.0431625659	 1.0675022051	 1.217633187	 0.138385
H	-0.7195713409	 1.3487854384	 1.2068991099	 0.138493
H	-0.1105745426	-0.2213676109	 1.7135349402	 0.167094
H	-2.1285830572	-0.3346774973	-0.2608835027	 0.11527
H	-1.3789581069	-0.6544029262	-1.8523982969	 0.124809
H	-0.0187053596	-3.12301332	-2.0761030558	 0.115262
H	 0.9421583021	-3.1887130227	-0.5755792066	 0.115982
H	-1.5255521182	-4.8426741621	-1.3130465296	 0.10901
H	-0.6534905147	-5.023091118	 0.2345279548	 0.114891
H	-3.0016862824	-3.1954056334	 0.2853287575	 0.103065
