18
gdb 6164	3.57474	1.41549	1.27821	3.5488	69.68	-0.247	-0.0264	0.2205	1050.1498	0.149816	-384.951734	-384.942479	-384.941535	-384.985565	33.084	
C	 0.7248327073	 1.3819107304	 0.1976005079	-0.487772
C	-0.1402361139	 0.1448318245	 0.0393771366	 0.373183
O	-0.8018869784	-0.3067782933	 0.9453856522	-0.302041
C	-0.118490507	-0.4704741671	-1.3364412292	-0.105767
O	-0.573718212	-1.811978264	-1.4773043476	-0.266758
C	-1.362619769	-0.7980046122	-2.0969835361	 0.393682
C	-2.7338257122	-0.5833782892	-1.4978963432	-0.466917
C	-1.2938201516	-0.7739773631	-3.6100941791	-0.447623
H	 1.7834786154	 1.1140248803	 0.0985895517	 0.146386
H	 0.5075204441	 2.1122041194	-0.590412883	 0.138725
H	 0.5537486925	 1.8281747485	 1.1774719004	 0.146524
H	 0.7657643935	-0.2246786377	-1.9278488665	 0.087909
H	-2.6963121125	-0.6352259275	-0.4102780172	 0.166552
H	-3.1414951258	 0.3861494409	-1.8036087801	 0.115768
H	-3.4150136967	-1.3597923727	-1.862819337	 0.125707
H	-1.9600468722	-1.5368340106	-4.0274802407	 0.131357
H	-1.6146086018	 0.1979840634	-3.9991574065	 0.123299
H	-0.2791538298	-0.9768458299	-3.9606507827	 0.127785
