22
gdb 106732	2.4713	1.49701	1.10374	1.643	87.07	-0.2208	0.0207	0.2415	1204.893	0.194157	-367.209485	-367.200379	-367.199435	-367.24285	35.577	
C	-0.2935473591	 1.5019499968	-0.1446772291	-0.374279
C	 0.1446620879	 0.0470831913	 0.0799629546	-0.291037
C	 0.8740894805	-0.5395587405	-1.1059489887	 0.29752
C	 2.2569022633	 0.014537864	-1.4728497569	-0.307786
C	 2.9559018988	-1.166764638	-2.1096928099	-0.085656
C	 2.191864527	-2.2587617914	-2.1129158854	-0.093215
C	 0.8482441199	-1.9816058475	-1.5088952806	 0.23708
C	 0.0950895494	-3.0899132696	-0.8199998716	-0.499514
N	 0.1082241186	-0.9546626578	-2.3109814915	-0.408703
H	 0.5683931773	 2.1541824596	-0.3176005922	 0.122424
H	-0.9504506191	 1.584586289	-1.0166601173	 0.12265
H	-0.8344755367	 1.8874031486	 0.7248642918	 0.111009
H	 0.7941659415	-0.0057388891	 0.9636342959	 0.099584
H	-0.7361617889	-0.564180863	 0.3105206856	 0.090481
H	 2.1802320482	 0.8619634085	-2.1644638736	 0.118128
H	 2.7940013167	 0.3749036932	-0.5841177531	 0.098866
H	 3.9509547735	-1.0934610632	-2.5340948655	 0.093236
H	 2.4637463998	-3.2265166255	-2.5192533846	 0.091932
H	 0.7151436273	-3.5725949014	-0.0565993551	 0.125063
H	-0.8146914126	-2.7257118392	-0.333753509	 0.115227
H	-0.2021390712	-3.8609677481	-1.5405872549	 0.125204
H	-0.8774678622	-1.0028542567	-2.046893119	 0.211786
