15
gdb 130983	4.18595	0.96074	0.80925	1.3147	67.88	-0.2319	-0.0409	0.191	1324.7369	0.112224	-453.933567	-453.925384	-453.92444	-453.967853	28.892	
O	 0.8525846488	 1.0311173741	 1.2821478527	-0.233098
C	 0.5376268415	 1.6632945904	 0.3096962064	 0.171181
C	 1.1686818663	 1.4825919621	-1.0692466199	-0.263337
N	 1.2636754836	 2.7402676419	-1.7808911584	-0.388328
C	 2.3019356472	 3.6075533693	-1.5101251755	 0.450312
N	 2.65611657	 4.5207528179	-2.3923797414	-0.246573
O	 3.6871198944	 5.2421717481	-1.7800806637	-0.163687
C	 3.914806457	 4.7284742316	-0.5690417053	 0.090352
C	 3.0838629765	 3.687558587	-0.3145654279	-0.337943
H	-0.2568583233	 2.4427174774	 0.3343054963	 0.094065
H	 2.1269088672	 0.9583924803	-0.9539472393	 0.135566
H	 0.4976134067	 0.8228166718	-1.6328891484	 0.140699
H	 0.9957525322	 2.730999947	-2.7530578485	 0.259001
H	 4.6972842404	 5.2010636771	 0.0050868339	 0.152733
H	 3.0295245916	 3.0800637938	 0.5727060491	 0.139057
