19
gdb 13533	2.8651	1.64139	1.16956	1.3126	77.56	-0.2254	0.05	0.2754	1073.1223	0.163085	-327.859954	-327.850783	-327.849838	-327.893575	33.71	
C	 0.2707224295	-2.0631129318	-1.9461076074	-0.392075
C	 0.1422510216	-1.6461505922	-0.4656002459	-0.188259
C	 0.9426085427	-0.452429872	-0.1863018857	 0.338767
C	 1.5901085605	 0.5387319197	 0.0233790256	-0.4745
C	-1.3270600823	-1.4125898443	-0.1121471525	 0.037489
C	-2.1801685264	-2.5412754308	 0.3609021295	-0.264275
N	-1.8512138788	-1.4322445102	 1.248006797	-0.081885
C	-0.9668519312	-1.6902546218	 2.3750033952	-0.317689
H	 1.3174336247	-2.229471893	-2.212647219	 0.126407
H	-0.2905480433	-2.9840366272	-2.1284416918	 0.119318
H	-0.1250547787	-1.2815549055	-2.6014283499	 0.129066
H	 0.5281881283	-2.4685676646	 0.1483727547	 0.104507
H	 2.1647244216	 1.4099961752	 0.2188246137	 0.19594
H	-1.7849482691	-0.6418912073	-0.7319046589	 0.095728
H	-3.220700308	-2.6284077555	 0.0583802858	 0.113819
H	-1.6788559999	-3.494902023	 0.5333884429	 0.10125
H	-0.2419290071	-2.504055912	 2.2144731255	 0.097606
H	-0.4107911025	-0.7791744733	 2.6133305383	 0.136176
H	-1.5790600816	-1.9577987504	 3.2419953929	 0.122608
