19
gdb 40567	3.86681	1.06491	0.91038	1.8262	79.34	-0.2385	0.0078	0.2463	1298.9606	0.160352	-423.006337	-422.998273	-422.997329	-423.03943	30.572	
C	 0.2158528933	 1.4828251134	-0.0356190073	-0.192415
O	 1.2195118908	 0.4779776178	-0.1455327232	-0.235728
C	-0.1460137794	 0.0524506299	 0.0071238557	 0.00026
C	-0.4945189296	-0.6739641104	 1.2513758921	 0.281826
C	-1.4844536727	-1.5698068449	 1.2783394073	-0.169748
C	-1.8378843812	-2.3399231682	 2.5211267815	-0.255476
C	-0.696686868	-2.2402146841	 3.5359748637	-0.080842
O	-0.2596226837	-0.8995551577	 3.6741329364	-0.245213
C	 0.3299663102	-0.39977238	 2.4908108474	-0.16575
H	 0.2343316725	 2.0712225203	 0.8798575829	 0.11862
H	 0.0162176255	 2.0495184459	-0.9445664562	 0.119006
H	-0.5825725735	-0.366029345	-0.9007702616	 0.093172
H	-2.066372792	-1.7595431357	 0.3786388141	 0.082648
H	-2.7684966275	-1.9515387318	 2.9577615256	 0.117269
H	-2.0288395737	-3.3929077099	 2.2778812424	 0.104969
H	-1.0135249628	-2.5644604277	 4.5310242691	 0.106589
H	 0.1407578114	-2.8833020977	 3.2180516274	 0.091032
H	 1.3428183282	-0.8140324856	 2.3506864172	 0.114261
H	 0.4522494223	 0.6765419215	 2.6506316354	 0.115519
