20
gdb 103157	2.23348	1.47824	1.13439	2.9787	75.73	-0.227	-0.0307	0.1963	1167.6046	0.16835	-440.273155	-440.263308	-440.262364	-440.307457	36.299	
C	 0.0222741375	 1.5316810682	-0.1775739129	-0.333875
N	 0.0808392739	 0.1044648718	 0.059209032	-0.118835
C	 0.8988982505	-0.7218538915	-0.8529108436	-0.290482
C	 1.3454933399	-1.5141750253	 0.3780264639	 0.370507
O	 1.8651856769	-2.5755820044	 0.5807824695	-0.317966
C	 0.7269798661	-0.4482467423	 1.2932084413	 0.154554
C	 1.7626790395	 0.4312228885	 1.9982539652	-0.445381
C	-0.2706120494	-1.0644480206	 2.2901482511	-0.092578
O	 0.3924472929	-1.8877207307	 3.2300985405	-0.419406
H	 1.0114122861	 2.0165054835	-0.2590476177	 0.098833
H	-0.5191824964	 1.7192957255	-1.1106775874	 0.127874
H	-0.5330077353	 2.0218184037	 0.6277487909	 0.127843
H	 0.3501092081	-1.264784	-1.6301493265	 0.13237
H	 1.7439126191	-0.1894898918	-1.3234432885	 0.116111
H	 2.5681959959	 0.7487084718	 1.3296265921	 0.117224
H	 1.2842164685	 1.3275385004	 2.4075228401	 0.12376
H	 2.1964225996	-0.129211119	 2.8289427529	 0.150558
H	-0.7751497803	-0.2748034263	 2.859331055	 0.106298
H	-1.039859917	-1.6106338465	 1.7254271934	 0.094814
H	 0.867703544	-2.564098875	 2.7299546787	 0.297776
