17
gdb 27764	2.26253	1.80938	1.03168	2.0342	78.04	-0.1611	0.0474	0.2085	1120.8914	0.137506	-417.993622	-417.985252	-417.984307	-418.026383	31.582	
N	-0.0029271081	 1.4567692616	-0.0709383071	-0.60224
C	-0.036916176	 0.0538481011	-0.0782847516	 0.280064
C	-1.0961581115	-0.8426259155	-0.0748364721	-0.357057
C	-0.5625939991	-2.1725730161	-0.227645714	 0.212203
O	-1.2692829083	-3.3359999137	-0.3469683785	-0.448655
C	 0.7993667306	-2.0493546605	-0.216603733	 0.152035
C	 2.166775883	-2.3913454181	-0.7819674949	-0.348309
C	 2.4007209415	-0.8383625618	-0.8074191886	-0.171517
N	 1.1041110334	-0.6889522714	-0.101447369	-0.051153
H	 0.5949427381	 1.8268072559	 0.6601727337	 0.245341
H	-0.9300867896	 1.847025694	 0.0394673819	 0.245363
H	-2.132392785	-0.5908460307	 0.1070138886	 0.074191
H	-2.2023052038	-3.1148132295	-0.4147221744	 0.293184
H	 2.8444681281	-2.9431815527	-0.1236867325	 0.113618
H	 2.171841012	-2.8621159042	-1.7681150296	 0.120789
H	 3.257306892	-0.4508162741	-0.2497201714	 0.113827
H	 2.3871005227	-0.4070600541	-1.8121644874	 0.128315
