18
gdb 110466	3.99811	1.42495	1.28346	1.0997	73.59	-0.2263	0.0687	0.2949	1023.6585	0.14891	-401.869756	-401.862634	-401.861689	-401.901558	28.054	
C	 0.0643230974	 1.299968666	 0.1639210153	-0.236262
O	-0.0146047358	-0.0771646693	-0.1284269507	-0.249387
C	-1.3241001079	-0.6011328611	-0.0718680754	 0.143631
C	-1.3467596277	-2.0288794931	-0.5657076119	-0.124886
C	-1.0500978728	-2.9948340036	 0.5739988106	-0.099954
C	-2.4620478682	-2.7653929974	 0.11465897	-0.028888
N	-2.8187307984	-1.9819874472	 1.3716425125	-0.169372
C	-1.4020741022	-2.1798509281	 1.8273685298	-0.033448
C	-1.8444484057	-0.8516667012	 1.3371788947	-0.098321
H	 1.1017338085	 1.603686262	 0.0042289405	 0.128711
H	-0.5849349401	 1.8939724793	-0.4985409535	 0.105059
H	-0.2092782895	 1.5251188136	 1.2054390612	 0.107744
H	-2.0136346307	 0.0409520308	-0.6436577171	 0.070583
H	-1.0554660753	-2.2857449143	-1.5755075081	 0.098255
H	-0.4076630026	-3.8596315487	 0.4994748863	 0.095521
H	-3.2007642785	-3.4023277261	-0.3521201459	 0.09959
H	-1.1639239445	-2.4273278012	 2.8547422078	 0.096324
H	-2.0696728662	-0.0414267503	 2.0208759339	 0.0951
