19
gdb 87042	2.49301	1.31926	1.08352	3.49	80.55	-0.2492	0.0229	0.2721	1204.1403	0.159261	-382.049043	-382.039936	-382.038992	-382.083077	33.645	
C	-0.2128404314	 1.4915636584	-0.0492165622	-0.419444
C	-0.0298916401	-0.0051392425	 0.050367881	-0.033227
C	 1.3134984319	-0.6405982639	-0.1381077825	-0.321066
C	 0.6696467801	-0.6581289994	 1.2473766059	 0.177166
C	 1.2282728935	 0.2119611802	 2.2497142651	 0.222577
N	 1.6557235163	 0.8941734645	 3.0817769546	-0.368476
C	 0.1261127418	-1.965032423	 1.76830802	-0.049322
C	 0.7121027859	-2.6462473468	 2.9483626088	-0.25735
N	-0.6312861498	-2.0393756816	 3.0216597157	-0.324859
H	 0.6485266836	 2.0293659617	 0.3565772104	 0.140377
H	-0.335303165	 1.7901757241	-1.0954759717	 0.127016
H	-1.1002954011	 1.8187517475	 0.5015030603	 0.133628
H	-0.8767636204	-0.588875238	-0.3015430541	 0.108184
H	 1.3842997263	-1.5968979508	-0.6447674169	 0.130967
H	 2.1700728367	 0.0098565232	-0.2746400657	 0.138219
H	-0.2912680755	-2.5794827196	 0.9722820634	 0.094298
H	 0.7300379588	-3.7312166925	 2.9944484346	 0.122167
H	 1.5301949326	-2.1511517317	 3.4640584204	 0.135098
H	-0.5758959945	-1.1518021598	 3.5181641527	 0.244048
