18
gdb 107519	2.09183	1.60164	1.09826	4.769	76.85	-0.229	0.0152	0.2442	1145.6024	0.14821	-398.076753	-398.068031	-398.067087	-398.110354	32.44	
C	 0.0972091552	 1.4238031711	 0.3250070586	-0.337132
N	-0.002368263	 0.0435425807	-0.1546660419	-0.374638
C	-1.2884876481	-0.5261442308	-0.1143297383	 0.337036
C	-1.878416349	-1.042926002	 1.1785781607	-0.292234
C	-1.7499791232	-1.9717443458	 0.0114008066	-0.091681
N	-2.9202535663	-1.7531094015	-0.8716627786	-0.316295
C	-2.4346084639	-0.3611006019	-1.1628853815	-0.208066
C	-3.4230848827	 0.6975902038	-0.9603652328	 0.305015
N	-4.1765149841	 1.5566410266	-0.7831256109	-0.332872
H	 1.1444851155	 1.737407697	 0.2989623933	 0.121634
H	-0.4967331871	 2.1477285674	-0.2538559413	 0.118689
H	-0.2439185684	 1.4656118394	 1.3634774764	 0.137077
H	 0.4236203306	-0.05512253	-1.0693810676	 0.220193
H	-1.13194541	-1.1706429209	 1.9548351949	 0.126901
H	-2.866082353	-0.7378954471	 1.5115318956	 0.134219
H	-1.1964274976	-2.9019870211	 0.0216585211	 0.108831
H	-2.8610834473	-2.3166868532	-1.7138225388	 0.230431
H	-2.0150164877	-0.2665690217	-2.1708240955	 0.112892
