21
gdb 74402	2.69559	1.49404	1.14564	1.5668	83.93	-0.2155	0.0204	0.2359	1150.329	0.181089	-387.071497	-387.062495	-387.061551	-387.104252	35.869	
C	 0.015813183	 1.4641261572	 0.0474002447	-0.517217
C	 0.016946613	-0.0246804214	-0.0099664456	 0.327083
C	 0.009413037	-0.870777009	-1.043816798	-0.30749
C	 0.0083582361	-2.2567814259	-0.3711854936	 0.383809
O	-0.0687304852	-3.4085391537	-1.1497450928	-0.48515
C	 1.0890346401	-2.02630866	 0.7443891056	-0.307808
C	 0.0184521912	-0.9766307476	 1.2166702539	 0.236241
C	 0.0166208366	-0.3962545495	 2.6123260115	-0.504954
C	-1.0507193677	-2.0307582859	 0.7424615234	-0.27374
H	 0.8957629892	 1.8502845144	 0.5781631649	 0.126018
H	 0.0110069708	 1.8973617068	-0.956828102	 0.124551
H	-0.860919785	 1.8478535477	 0.5850566244	 0.127135
H	-0.0111532705	-0.6781386884	-2.1086465702	 0.091742
H	 0.6473574498	-3.3865910633	-1.7934221054	 0.277291
H	 1.1884012223	-2.8767196074	 1.4273969631	 0.090143
H	 2.0669612275	-1.6451721701	 0.437938453	 0.081209
H	 0.9011562271	 0.2263675056	 2.7882480293	 0.115937
H	-0.8680253711	 0.2269963979	 2.7856919675	 0.116617
H	 0.0152321786	-1.189161361	 3.3669599709	 0.116415
H	-2.0306013	-1.6574860553	 0.4359173321	 0.09006
H	-1.1452839929	-2.8816416913	 1.4253710434	 0.092109
