17
gdb 74424	2.90302	1.41701	1.09917	3.8515	75.38	-0.2372	-0.0498	0.1874	1117.9868	0.1348	-421.845775	-421.837309	-421.836365	-421.878695	32.052	
C	 0.0373426764	 1.5191950919	-0.0665902312	-0.490784
C	-0.0406860167	 0.0306726042	 0.0170270657	 0.197681
C	-1.111104568	-0.7774320599	-0.0038605239	-0.258608
C	-0.7368450701	-2.2328650017	 0.0331959153	 0.373219
O	-1.4897897951	-3.1194982993	 0.7975236378	-0.462718
C	 0.0341762673	-2.7155633841	-1.1749888088	-0.337334
C	 0.7584644748	-2.2561153961	 0.095201353	-0.210534
C	 1.1993285898	-0.809733892	 0.1248205664	 0.344992
O	 2.3303936925	-0.3936007543	 0.2230454707	-0.330066
H	 0.6144663361	 1.8296382499	-0.9449960476	 0.140911
H	-0.9543566466	 1.9748254162	-0.1215740592	 0.121191
H	 0.5638095749	 1.924879315	 0.8038533066	 0.146329
H	-2.1456755603	-0.4576162302	-0.0811901355	 0.107587
H	-2.2660727083	-3.3740412741	 0.2867962307	 0.288001
H	 0.0490838597	-3.7873328449	-1.3481288275	 0.125264
H	 0.0748488681	-2.0959913325	-2.0645246377	 0.123694
H	 1.3049162656	-2.995511298	 0.6649304455	 0.121176
