20
gdb 92099	2.71082	1.41798	1.02263	1.6364	79.92	-0.2434	0.0104	0.2539	1179.8329	0.173455	-403.126441	-403.118414	-403.11747	-403.158772	32.205	
O	 0.4187276738	 1.1771728976	 0.6022628974	-0.43423
C	 0.0715787295	-0.0857178264	 0.0261123338	 0.091175
C	-1.4418094512	-0.3273764141	 0.1164942562	-0.244426
C	-1.8083460582	-1.7430614937	-0.2693883327	-0.019673
N	-3.0238673389	-1.9445288687	-1.0822033555	-0.347179
C	-1.6948344775	-2.1771590997	-1.6810902495	-0.010895
C	-1.2379806197	-1.1959640888	-2.7502374118	-0.272537
C	 0.138783196	-0.6130004964	-2.5090590791	-0.072777
C	 0.6682584788	-0.1809653885	-1.3613013049	-0.067728
H	 0.0700883278	 1.859687101	 0.0175693625	 0.275175
H	 0.5820260787	-0.812911191	 0.6741125684	 0.091616
H	-1.7607593133	-0.1076993576	 1.1409158927	 0.104155
H	-1.9687327754	 0.3745015198	-0.5387436855	 0.101843
H	-1.5867203119	-2.4942650962	 0.4874042655	 0.081252
H	-3.4629110911	-2.8293931693	-0.8413068167	 0.229633
H	-1.395599742	-3.2097847373	-1.8489363196	 0.082709
H	-1.2505721878	-1.6905744425	-3.7275741198	 0.100668
H	-1.9835917618	-0.3950434621	-2.8186285557	 0.129258
H	 0.7681768696	-0.5382501301	-3.3939342494	 0.089452
H	 1.6876593044	 0.2015285138	-1.3871296363	 0.092508
