14
gdb 128085	4.56837	1.14365	0.92	2.5389	66.08	-0.2801	-0.0607	0.2193	1196.7866	0.102246	-466.198496	-466.190432	-466.189488	-466.232337	27.398	
C	-0.0078658766	 1.4041914461	 0.1226156247	-0.335895
N	 0.1148143441	-0.0318225371	-0.0471516143	-0.355386
C	 0.5870760366	-0.5711060893	-1.1868639632	 0.554154
O	 0.9609786286	-0.01540728	-2.1836917828	-0.344721
N	 0.6096443278	-2.033351013	-1.1029712433	 0.013914
N	 1.0318273693	-2.8115830081	-2.092266704	-0.201982
C	 0.8684826568	-4.0125734321	-1.5653865737	 0.089068
N	 0.365815955	-3.9737921562	-0.3020029022	-0.200926
N	 0.2069300002	-2.713816314	-0.0228023026	-0.1202
H	 0.6038491586	 1.7510837581	 0.9614364699	 0.141319
H	 0.338916803	 1.8818595698	-0.7937920472	 0.177642
H	-1.0496332906	 1.6879137687	 0.3026828146	 0.141319
H	-0.155337682	-0.6613308497	 0.6939313612	 0.282248
H	 1.1090705494	-4.9254415233	-2.0851278871	 0.159446
