23
gdb 101139	3.37952	0.84749	0.83625	1.3425	88.45	-0.226	0.0317	0.2577	1537.9511	0.205784	-388.307167	-388.297119	-388.296175	-388.342661	36.969	
C	 0.0336837308	 1.5710615184	-0.0355834134	-0.397085
C	 0.0626616305	 0.0323049452	-0.0168295669	-0.091099
C	 0.6870061725	-0.5197418985	-1.3071733453	-0.07374
O	-0.1063550593	-0.0841259148	-2.4025059995	-0.421978
C	 0.7655411838	-0.5158999022	 1.1976733939	 0.357094
C	 0.2408561873	-1.3449442629	 2.1037299152	-0.19032
C	 1.1927565061	-1.6707103643	 3.2284326308	-0.243702
C	 2.5508647739	-1.1582945221	 2.6858523728	-0.205091
C	 2.1878853674	-0.1352143849	 1.5818751637	-0.305329
H	 1.0477574533	 1.9861088026	-0.0549235374	 0.109811
H	-0.4912667944	 1.9255077944	-0.9250414979	 0.13313
H	-0.4726313543	 1.9623254692	 0.8518883045	 0.110927
H	-0.9731898733	-0.3295050474	-0.0004043807	 0.081793
H	 1.7244497487	-0.1609838465	-1.4042764759	 0.082808
H	 0.7190068857	-1.6185960588	-1.2515194377	 0.0869
H	 0.3073078986	-0.3901837585	-3.2144324197	 0.286084
H	-0.7777429318	-1.7192514836	 2.0728679656	 0.08125
H	 0.897592545	-1.149738173	 4.151169349	 0.10192
H	 1.2166307919	-2.7379843309	 3.4771058426	 0.098458
H	 3.1903125286	-0.7344854168	 3.4644773853	 0.09378
H	 3.0985145209	-1.9939716384	 2.2380051963	 0.101823
H	 2.8893303147	-0.1653762245	 0.7401850672	 0.097178
H	 2.2153144935	 0.8965212084	 1.9604009474	 0.105388
