17
gdb 32958	3.8256	0.97839	0.90228	2.5937	73.24	-0.2036	0.0099	0.2135	1333.9117	0.136131	-455.159698	-455.150708	-455.149764	-455.194425	31.867	
C	 0.0607912647	 0.5153819266	-0.3856905542	-0.237757
O	-0.3562682603	 0.2311954642	 0.9348265447	-0.22931
C	 0.5979360659	-0.5067139537	 1.6805852175	-0.181881
C	 0.7282771017	-1.9292479584	 1.2501003653	 0.351278
N	 1.6589936634	-2.4913930247	 0.5524199156	-0.284755
C	 1.259348761	-3.8147185602	 0.4009724156	-0.195682
C	 0.0691648046	-3.9819862042	 1.0413443922	 0.341955
N	-0.7610222631	-5.0540362567	 1.3108360758	-0.597855
O	-0.2875238833	-2.7943688873	 1.5917492309	-0.192399
H	 0.2473090356	-0.3967741479	-0.9684050367	 0.121176
H	-0.7448409325	 1.0836902619	-0.8564089198	 0.125034
H	 0.9801745042	 1.1211379061	-0.3953575903	 0.106639
H	 1.5963711817	-0.0526168122	 1.6124020795	 0.117275
H	 0.2572039731	-0.4600891045	 2.7192266427	 0.12252
H	 1.8460093021	-4.5362406202	-0.1432301818	 0.109761
H	-0.6203311794	-5.8304381235	 0.6797966422	 0.261304
H	-1.7389548493	-4.7981221752	 1.3603265811	 0.262697
