19
gdb 28225	4.48732	1.16544	0.94806	1.3437	84.39	-0.1728	0.0551	0.2278	1244.44	0.163019	-382.113792	-382.105656	-382.104712	-382.14641	31.445	
N	 0.1525965198	 1.39396733	 0.0906729681	-0.609121
C	-0.0210293746	-0.0074592887	 0.0331829659	 0.288377
C	-1.1411102831	-0.8174302379	 0.0215609685	-0.415397
C	-0.6675548061	-2.1612523864	 0.0593589744	 0.320894
C	 0.6996462574	-2.1251380296	 0.0820211597	 0.2874
C	 1.3621746431	-3.4624428714	 0.0128373596	-0.350321
C	 0.1387240694	-4.3950771154	 0.2982355559	-0.187329
C	-1.159815543	-3.5796251851	-0.0136756202	-0.345789
N	 1.1025274944	-0.8138096367	 0.0576206197	-0.394887
H	 0.3010332866	 1.8014221986	-0.8289380729	 0.240532
H	-0.6674434276	 1.8368873998	 0.4872492856	 0.244371
H	-2.1618890488	-0.4666786343	-0.0181655984	 0.078084
H	 1.7983538529	-3.6604382151	-0.9775196326	 0.100625
H	 2.1657255934	-3.6162286804	 0.7434023901	 0.096712
H	 0.192788336	-5.3277924564	-0.2695691827	 0.092633
H	 0.143030472	-4.6632852742	 1.3590400809	 0.106129
H	-1.9590400573	-3.8163970112	 0.6979961085	 0.09679
H	-1.5524126101	-3.8242975365	-1.0107439753	 0.097698
H	 2.0328175055	-0.4541424489	 0.1848237952	 0.252599
