18
gdb 75441	3.056	1.16587	0.87408	4.8742	79.42	-0.2541	0.0047	0.2588	1303.1401	0.147855	-401.971285	-401.962743	-401.961799	-402.004512	31.797	
C	-0.0055523325	 1.5312056472	 0.0470420858	-0.480553
C	-0.0016523251	 0.030448274	-0.021972373	 0.297162
C	 0.0003653776	-0.6532442074	-1.1667644207	-0.158898
C	-0.0388748567	-2.1539369765	-1.2275567618	-0.123182
O	-0.3174232982	-2.7612211536	 0.0262597894	-0.255383
C	 0.4264571287	-2.1709845303	 1.0745644093	-0.035118
C	-0.0001621884	-0.7099874271	 1.2966297768	-0.298942
C	 0.2295248767	-2.985291154	 2.2817507309	 0.282937
N	 0.0947905202	-3.5905485226	 3.2557724471	-0.316105
H	 0.8833833872	 1.906635937	 0.5697389176	 0.127957
H	-0.0329190809	 1.9801514992	-0.9490896728	 0.12619
H	-0.8743058351	 1.8964566073	 0.6095896497	 0.131428
H	 0.0296354222	-0.1358222629	-2.1225449292	 0.092087
H	-0.8364300262	-2.4935401658	-1.8977929512	 0.130371
H	 0.9099986884	-2.5462158282	-1.6362752939	 0.106278
H	 1.5028919417	-2.1921576973	 0.8339658623	 0.11633
H	 0.6879553111	-0.2337519837	 2.005766203	 0.121365
H	-0.9943263908	-0.6833538253	 1.7598500707	 0.136074
