18
gdb 34664	3.29592	1.14119	0.89741	3.721	80.98	-0.2548	-0.0449	0.2099	1267.8861	0.149525	-401.97114	-401.962984	-401.96204	-402.004195	30.642	
N	-0.017073507	-1.1519687028	-0.4338754756	-0.338913
C	-0.0337995089	-0.0092159586	-0.2417866222	 0.21788
C	-0.008983434	 1.4015790439	 0.0030564107	 0.147657
C	-1.1740968245	 2.070831623	-0.0128929142	-0.120741
C	-1.3578992116	 3.5516244209	 0.1805434399	-0.264359
C	-0.5941057757	 4.179107398	 1.354657853	-0.073986
O	 0.8055912451	 4.2232796218	 1.1745416168	-0.237683
C	 1.4762280392	 2.9972336652	 1.3863260585	-0.07734
C	 1.3674755729	 2.0119804863	 0.2179127091	-0.304261
H	-2.0737177602	 1.4955813317	-0.2135816232	 0.118301
H	-1.0574696478	 4.0775329863	-0.7375218302	 0.135129
H	-2.4239381677	 3.762022506	 0.3190227596	 0.114462
H	-0.9118443673	 5.2212635701	 1.4615604321	 0.112881
H	-0.8449184236	 3.6503389381	 2.2880466811	 0.096084
H	 2.5305580053	 3.2582868653	 1.522726204	 0.11444
H	 1.1217335945	 2.5204238577	 2.3139100319	 0.097477
H	 2.0914300352	 1.2081180731	 0.382858828	 0.12825
H	 1.679075416	 2.5289404641	-0.6994738393	 0.13472
