16
gdb 14082	3.71521	1.69183	1.40823	4.6036	66.98	-0.2331	0.0231	0.2563	916.3213	0.130228	-379.902975	-379.895171	-379.894227	-379.935092	28.418	
C	-0.1253980036	 1.4667876162	-0.0687700881	-0.316909
N	 0.0386992554	 0.021774687	 0.0115194639	-0.113887
C	 1.38386385	-0.5093567661	-0.1784706543	-0.306751
C	 0.7363235885	-0.5119196917	 1.1583759086	 0.190149
C	 1.1925425555	 0.1811134285	 2.4648517692	-0.241247
N	 0.6847708689	-1.0097661844	 3.1560276234	-0.346926
C	 0.2816365797	-1.6932410313	 2.024023304	 0.39346
O	-0.1945562521	-2.7796972225	 1.8471782683	-0.35975
H	 0.7428349341	 2.0341677495	 0.3057831534	 0.100693
H	-0.2899520348	 1.744178036	-1.1140642642	 0.132948
H	-1.0080485537	 1.7640234089	 0.5057007173	 0.131292
H	 1.4549168942	-1.4318344842	-0.7479748997	 0.137172
H	 2.2011857278	 0.1972699298	-0.3250787825	 0.110554
H	 2.2722284112	 0.3357575816	 2.5612176415	 0.117307
H	 0.6626064854	 1.1044946217	 2.7207373667	 0.117981
H	 0.7967002334	-1.318660089	 4.1091166426	 0.253916
