21
gdb 114485	2.86158	1.26665	1.12862	1.269	82.57	-0.2323	0.0268	0.2591	1181.4496	0.184323	-387.083461	-387.075153	-387.074209	-387.116616	32.387	
O	-0.036083673	 1.2861962895	-0.5090803526	-0.425133
C	 0.0181082609	-0.1244440818	-0.3307118968	-0.101639
C	-1.370823543	-0.5755447632	 0.0857191336	 0.038074
C	-2.469405893	-0.4542564617	-1.011468357	-0.23885
C	-2.6472519909	-2.0040385903	-0.9988894704	-0.049132
C	-1.953537788	-2.7598262124	-2.0988656024	-0.07413
C	-0.8305963064	-3.3509671706	-1.6890001003	-0.060366
C	-0.5500260405	-3.123804593	-0.2193237856	-0.277133
C	-1.6455904516	-2.1159338953	 0.2010507571	-0.047789
H	 0.8137760194	 1.5770376414	-0.8520041876	 0.284307
H	 0.3179640965	-0.6270322843	-1.2629809013	 0.089598
H	 0.7532634221	-0.3953217912	 0.4450996365	 0.081637
H	-1.6291314033	-0.0365427527	 1.0019572097	 0.075438
H	-3.3558822215	 0.0951347258	-0.6860357643	 0.095265
H	-2.1298441203	-0.0253376886	-1.9578317985	 0.099864
H	-3.6745846109	-2.348187173	-0.8393882261	 0.066686
H	-2.343237585	-2.8001009148	-3.1112750507	 0.088385
H	-0.1778736732	-3.9490492373	-2.3168352719	 0.087612
H	-0.6250188973	-4.0627604931	 0.3463295247	 0.100061
H	 0.4664449882	-2.7522106895	-0.0413538467	 0.10199
H	-2.0939232291	-2.3779203537	 1.1607356605	 0.065255
