20
gdb 84650	2.69298	1.61637	1.22247	1.7321	79.6	-0.214	0.0099	0.224	1069.5435	0.171613	-403.118663	-403.110313	-403.109369	-403.151092	33.245	
C	-0.1392127058	 1.6628810143	-0.1042107378	-0.403482
C	-0.0048785594	 0.1387906516	-0.0351463821	 0.037189
C	 0.5140163994	-0.4540514428	-1.3624108971	 0.07447
O	-0.265507868	 0.1007438998	-2.4144936106	-0.433277
C	 1.9947092981	-0.1809387952	-1.5248507436	-0.110854
C	 2.8119729097	-0.2446837409	-0.4758422692	-0.075032
C	 2.2550340874	-0.5901131809	 0.8570408213	-0.05374
C	 1.7712440882	 0.4756060213	 1.7818269558	-0.244188
N	 0.8209296487	-0.3907218463	 1.0832235569	-0.117517
H	 0.7971188671	 2.1522279273	-0.3875897094	 0.118441
H	-0.8887777404	 1.9221154148	-0.8542916139	 0.134655
H	-0.4625502045	 2.0610820963	 0.8619751331	 0.113957
H	-1.0108528409	-0.2663235366	 0.1282878887	 0.086787
H	 0.3578823057	-1.5447987205	-1.3194894257	 0.084908
H	-0.0551144768	-0.3740337037	-3.2242024611	 0.284666
H	 2.3551757028	 0.0605636573	-2.5216472165	 0.087955
H	 3.882269876	-0.077346846	-0.5659206397	 0.094809
H	 2.6479504637	-1.5066467665	 1.3002256343	 0.093846
H	 1.8205663841	 0.3335979524	 2.8593063746	 0.110325
H	 1.8911138048	 1.5039876743	 1.4545238118	 0.116084
