22
gdb 114750	2.26535	1.57936	1.18321	1.7416	81.63	-0.2182	0.0758	0.294	1162.1778	0.194896	-404.322771	-404.313817	-404.312872	-404.356136	34.344	
C	 0.2670213697	 0.8688692755	-0.745323835	-0.238045
O	-0.0428953872	-0.4722745507	-0.4479078269	-0.232865
C	-1.3202488743	-0.6522484234	 0.1529744761	 0.066725
C	-2.4804781354	-0.663781819	-0.8741799198	-0.179212
N	-2.7562349364	-2.0581910116	-1.2687045608	-0.106071
C	-1.549513744	-2.797304821	-1.6872337732	-0.253016
C	-2.0525772865	-2.9133580817	-0.2938877907	-0.030609
C	-1.400885624	-2.0624796567	 0.7901600386	-0.004525
C	-0.0860756655	-2.607166424	 1.3503388108	-0.397075
H	 1.2825969847	 0.8847121826	-1.1485056551	 0.128329
H	-0.4130128684	 1.3042567669	-1.492470598	 0.108014
H	 0.2317653836	 1.4987390617	 0.1575657407	 0.105866
H	-1.4628603497	 0.1325019381	 0.9108515233	 0.064393
H	-3.3918002044	-0.2654758936	-0.4129078541	 0.103756
H	-2.2597575228	-0.0520322723	-1.7544334764	 0.107878
H	-1.7450580875	-3.5988884573	-2.3941393315	 0.108051
H	-0.634950036	-2.2389325351	-1.857601953	 0.133034
H	-2.5713502903	-3.81644405	 0.0180085946	 0.083078
H	-2.1245527357	-1.9894353739	 1.6134263517	 0.079073
H	 0.6725942208	-2.6834778133	 0.569406438	 0.133272
H	 0.3072634585	-1.9571663283	 2.1383920705	 0.110859
H	-0.2398425191	-3.6011989628	 1.7827026602	 0.109093
