17
gdb 46732	2.92661	1.78714	1.4151	4.0949	72.09	-0.2357	0.0319	0.2676	939.1618	0.139119	-417.971309	-417.964474	-417.96353	-418.002695	27.203	
N	-0.0565917032	 1.2157520477	 0.4020376676	-0.554067
C	-0.0122452732	 0.0176804194	 0.0039500683	 0.433478
O	 1.1037569878	-0.5955267544	-0.4858115502	-0.244812
C	 0.8730944076	-1.9622273788	-0.880533765	-0.095186
C	-0.6093955926	-2.2642944014	-0.6165155323	-0.060067
C	-0.9858010547	-2.9745714416	 0.7029311551	-0.067427
N	-0.2270900791	-2.2804502598	 1.7684926701	-0.328584
C	-1.5011103396	-1.7054331801	 1.281009216	-0.041404
C	-1.1746026104	-0.9397918388	-0.0203442487	-0.121879
H	 0.8642384505	 1.6510943929	 0.3228204246	 0.217696
H	 1.1365284682	-2.049406446	-1.939397222	 0.108464
H	 1.5370175602	-2.5988826801	-0.2900601889	 0.1244
H	-1.1412072746	-2.6457737201	-1.4877947282	 0.087198
H	-1.3263666443	-3.9946945153	 0.8283178544	 0.098469
H	-0.4258633984	-2.7542017561	 2.6482633694	 0.235625
H	-2.3233208688	-1.514458757	 1.9579089717	 0.102959
H	-2.0519095254	-0.5204434206	-0.510738992	 0.105139
