18
gdb 6581	4.0199	1.94217	1.652	1.5536	71.88	-0.2288	0.0055	0.2343	859.872	0.152596	-347.773085	-347.765623	-347.764679	-347.804028	29.964	
C	 0.067937313	 1.5229954224	 0.1226673921	-0.510076
C	 0.0109977615	 0.0289682682	-0.0256017827	 0.37083
C	 0.6175256552	-0.7758259726	-1.2191882858	-0.290378
C	 0.6193086716	-1.8346477233	-0.070713961	 0.370931
C	 1.548361364	-3.0124469793	 0.0129344133	-0.510077
O	 0.9193060656	-0.7273652598	 0.8505435862	-0.346597
C	-0.9024766571	-2.0059826599	 0.1630779615	-0.122438
C	-1.3155151025	-0.7404090279	 0.1941181832	-0.12231
H	 1.0812657977	 1.8930712852	-0.0544036793	 0.127561
H	-0.6076173935	 2.0039170725	-0.5922262361	 0.12128
H	-0.2348595781	 1.8194174196	 1.1320490993	 0.131993
H	 0.0011159294	-0.9556579814	-2.1028664634	 0.091179
H	 1.6256745244	-0.4404756642	-1.4801462181	 0.096334
H	 2.5823804524	-2.7055952835	-0.1653694058	 0.127566
H	 1.4928033999	-3.4743452656	 1.0038763171	 0.131993
H	 1.2764034399	-3.767265121	-0.7320633232	 0.121281
H	-1.4438639618	-2.9364824196	 0.2594213362	 0.105463
H	-2.2999470917	-0.3134261901	 0.3236985965	 0.105465
