15
gdb 12725	3.10661	2.2873	1.69465	1.7006	62.31	-0.267	0.0151	0.2821	793.2464	0.118977	-399.78005	-399.772985	-399.772041	-399.811219	26.811	
O	 0.3040071194	 1.4549458927	-0.0197911183	-0.463599
C	 0.0697057361	 0.0948027952	-0.0630314743	 0.29999
C	 0.4219674017	-0.6057692287	-1.4049765371	-0.279077
C	-0.9399802435	-1.3688239169	-1.3885180974	-0.234721
C	-1.298665227	-0.6988319211	-0.0533209509	 0.03152
O	-0.797610725	-1.4823460561	 1.0836258244	-0.26905
C	 0.3529015981	-0.7295430227	 1.1719755938	 0.354005
N	 1.2531852001	-0.6834592366	 2.0445084612	-0.554763
H	 0.496397009	 1.6983216984	 0.8935495984	 0.299194
H	 0.4779296924	 0.139797331	-2.2006092619	 0.127029
H	 1.3380758376	-1.1989035113	-1.4088091364	 0.120618
H	-1.6037767119	-1.0839728559	-2.2077430179	 0.11535
H	-0.8901161838	-2.4574925493	-1.3325868704	 0.121376
H	-2.2895438121	-0.2953231689	 0.1493042027	 0.099568
H	 1.0865465989	-1.3495980997	 2.8006002042	 0.232559
