15
gdb 25998	4.99309	1.04041	0.86562	1.9629	68.61	-0.2295	0.0023	0.2318	1273.516	0.113055	-453.978931	-453.971004	-453.97006	-454.012246	28.547	
C	-0.4150846253	 1.3716501736	 0.1642259279	-0.469652
C	 0.2885975114	 0.0733048191	-0.125566359	 0.391222
N	 1.5279275851	-0.1865982874	-0.1169629997	-0.501525
O	-0.6379571649	-0.8759436101	-0.4248394915	-0.239938
C	-0.2859894826	-2.1526791032	-0.7303038674	 0.324937
C	 0.9045164608	-2.8019455135	-0.8241880981	-0.137102
O	 0.6105280236	-4.098811143	-1.1740309734	-0.141188
C	-0.7310942151	-4.1365337075	-1.2651524734	 0.079403
N	-1.3245110955	-3.0151472172	-1.0141256127	-0.307148
H	 0.3027041546	 2.1557286138	 0.4086091332	 0.130306
H	-1.0060222045	 1.6808066618	-0.7030665908	 0.155946
H	-1.1094070868	 1.244634552	 1.0001541298	 0.155944
H	 2.0636348743	 0.64275842	 0.1279532767	 0.228208
H	 1.9322060423	-2.5349842092	-0.6936392932	 0.177548
H	-1.1795559772	-5.0796939692	-1.5337948785	 0.153037
