21
gdb 108614	2.69509	1.17084	0.88583	2.3914	82.58	-0.227	0.0126	0.2396	1361.4618	0.180976	-424.236517	-424.226457	-424.225513	-424.271839	36.346	
C	 0.27519476	 1.5401215427	-0.2195283981	-0.39296
C	 0.0419631637	 0.0586874916	 0.0853067655	 0.067167
O	 0.472430071	-0.7344616527	-1.0214296443	-0.280556
C	 1.4074254641	-1.7162563114	-0.5917489684	-0.151205
C	 1.5931609487	-1.4808725473	 0.8857483572	 0.147143
C	 2.5239107269	-2.3346148913	 1.6880988978	-0.172224
O	 2.2238558797	-3.7251320925	 1.5675456118	-0.412956
C	 0.8067176046	-0.4746431452	 1.2784488477	 0.178646
C	 0.6151093142	 0.1109000479	 2.641437658	-0.504845
H	 1.3447286841	 1.7475404036	-0.3235697401	 0.116753
H	-0.2216277823	 1.8064911907	-1.1564068206	 0.127855
H	-0.1319484291	 2.1742498268	 0.5749791861	 0.10983
H	-1.04228044	-0.0965407286	 0.2342585298	 0.07368
H	 1.0259865892	-2.7267427247	-0.8014822797	 0.106621
H	 2.3499734621	-1.6094497238	-1.1530971139	 0.100261
H	 3.5494211045	-2.2366414161	 1.3108795102	 0.117855
H	 2.5369389525	-2.0182551762	 2.7408916921	 0.093341
H	 1.3148549088	-3.8470372628	 1.8615032808	 0.282485
H	 1.1503267559	-0.4485863323	 3.4122616982	 0.12734
H	 0.9636399416	 1.1499659925	 2.6824730526	 0.136707
H	-0.4484674703	 0.1281937992	 2.9113633471	 0.12906
