17
gdb 99569	2.26886	1.22169	0.83928	5.7829	73.38	-0.2583	0.0044	0.2627	1331.9103	0.136338	-414.194326	-414.184284	-414.18334	-414.229808	35.071	
N	-0.0244120994	 1.5110022268	 0.0110039794	-0.51852
C	 0.0210425992	 0.0549085735	-0.0067758837	-0.165586
C	-1.4175052928	-0.5129549791	 0.0211602118	-0.115396
C	-2.136145622	-0.0971173697	-1.1862003554	 0.283798
N	-2.6524416448	 0.2503483565	-2.159989686	-0.322323
C	-1.4237673332	-2.0624300624	 0.1606634474	-0.143186
N	-0.7183102166	-2.4513946142	 1.3811141053	-0.499776
C	-2.8018808421	-2.5945028185	 0.1049342029	 0.268549
N	-3.8666704398	-3.0435151637	 0.1326479239	-0.310242
H	 0.9033810975	 1.8863620524	 0.1735360819	 0.238246
H	-0.3334425639	 1.8699157138	-0.8876522252	 0.246292
H	 0.5484285668	-0.3841645693	-0.8708527216	 0.0975
H	 0.5248280729	-0.2986624696	 0.894593751	 0.139182
H	-1.9342134005	-0.076971465	 0.8843982366	 0.146963
H	-0.8738125435	-2.4787653596	-0.6908881062	 0.149796
H	-1.2807376981	-2.2223551116	 2.1964374313	 0.250131
H	-0.5823763697	-3.4572226203	 1.3965116068	 0.254571
