19
gdb 59690	2.16819	1.39718	0.99977	5.9434	76.07	-0.2448	0.0288	0.2736	1235.3017	0.159047	-419.194806	-419.185354	-419.18441	-419.229394	34.413	
C	-0.048886711	 1.5432236752	-0.0751531212	-0.424434
C	 0.0241652404	 0.0266475292	 0.0828098525	 0.131872
O	 0.6995822943	-0.3665487471	 1.2727158138	-0.430292
C	-1.3621600718	-0.610095609	 0.0497832607	 0.02314
N	-2.1245909539	-0.4467669688	-1.2064163595	-0.311547
C	-2.6128636325	-1.8401637499	-1.1448561668	-0.1681
C	-1.4912080667	-2.1650007601	-0.1081670043	-0.193782
C	-0.3351310061	-2.8426199314	-0.6711896571	 0.305572
N	 0.5683092035	-3.3963491348	-1.1337709644	-0.33803
H	 0.9551053261	 1.9744278209	-0.0478733453	 0.1325
H	-0.5176354162	 1.8095201226	-1.0271438536	 0.13381
H	-0.6382643894	 1.9952829846	 0.7341353558	 0.100177
H	 0.6166927095	-0.3946950889	-0.7356966964	 0.118508
H	 0.3106207191	 0.1193971892	 2.0086384392	 0.277306
H	-1.9165796056	-0.2975349362	 0.9512860627	 0.05792
H	-2.8419686011	 0.2690806612	-1.1977110574	 0.224499
H	-3.608422664	-1.9637516595	-0.6985926174	 0.103056
H	-2.5749721418	-2.3787255519	-2.0952074372	 0.130108
H	-1.8159729626	-2.6957389255	 0.7871140358	 0.127717
