21
gdb 118033	3.95529	0.69595	0.66209	2.9363	76.06	-0.267	-0.038	0.229	1719.1758	0.179066	-461.366413	-461.355501	-461.354557	-461.403108	38.4	
C	-0.109971888	 1.6228089546	 0.0235414116	-0.403701
C	 0.0363040627	 0.0944289127	-0.0271702313	-0.014838
C	 0.7057250483	-0.4038171616	-1.3188575872	-0.169311
C	-0.0572468096	-0.0708229617	-2.5962367399	-0.088566
O	 0.5890521879	-0.7501424498	-3.6628606377	-0.41926
C	 0.8372427034	-0.4209598349	 1.1948514752	 0.050759
O	 2.1182110286	 0.1457811465	 1.2568501355	-0.435684
C	 0.089950345	-0.1694258265	 2.4873550666	 0.132702
O	 0.5849723506	 0.4355775449	 3.4079512509	-0.264999
H	 0.8723461969	 2.0987117002	-0.0372384243	 0.138822
H	-0.7249752022	 1.993195193	-0.800411858	 0.117428
H	-0.5819178545	 1.9520495094	 0.9556685891	 0.116806
H	-0.9634550096	-0.361932094	 0.0379608094	 0.070632
H	 1.7200453653	 0.0035866259	-1.3862129894	 0.127578
H	 0.8085755039	-1.495178509	-1.2769843951	 0.103581
H	-1.1081671183	-0.3939854817	-2.4979607763	 0.079582
H	-0.0659165463	 1.0153399742	-2.7709708126	 0.08968
H	 0.1656493198	-0.4898668026	-4.4859665624	 0.285604
H	 0.9107439996	-1.5217361462	 1.1026223874	 0.091474
H	 2.188172055	 0.5407081888	 2.1403494829	 0.295032
H	-0.9396765884	-0.5798125022	 2.5456295256	 0.09668
