16
gdb 49154	3.94102	1.39939	1.1895	3.3976	76.76	-0.2309	-0.0664	0.1645	1020.3191	0.126029	-400.719907	-400.713163	-400.712219	-400.751218	26.497	
O	-0.0532944936	-0.0352105175	-0.0100015096	-0.277263
C	 0.0014117637	 1.17659859	-0.0186159516	 0.062596
C	 1.2436164472	 1.9394474387	-0.0442728595	 0.247816
C	 1.3763705014	 3.2721895613	 0.0750244102	-0.166722
C	 2.81301745	 3.6103971102	 0.0350007648	-0.072238
C	 3.7841811293	 2.8159663235	 0.8853762379	-0.035956
C	 3.2435854711	 1.4865164178	 1.375063436	-0.246249
C	 2.6292467205	 1.3407368394	-0.054936447	-0.121002
N	 3.5582911323	 2.4651728908	-0.5537534472	-0.136421
H	-0.9223159451	 1.7967662344	-0.0196661589	 0.070515
H	 0.5793427112	 3.9964047114	 0.1920285055	 0.125615
H	 3.143266938	 4.5948353514	-0.2799000184	 0.104922
H	 4.7001641287	 3.2905949349	 1.225114336	 0.103429
H	 4.0652375891	 0.7819717999	 1.5173848173	 0.126271
H	 2.5733292421	 1.4524602306	 2.2381470371	 0.109507
H	 2.7428266641	 0.391128713	-0.5710495226	 0.10518
