21
gdb 80866	2.18082	1.69253	1.44591	1.7334	77.61	-0.2422	0.0684	0.3106	1057.9358	0.182126	-424.219184	-424.21032	-424.209376	-424.251908	34.897	
C	-0.0556631434	 1.5277884908	 0.034675757	-0.422566
C	 0.0259000362	 0.0040033326	-0.0130806702	 0.012651
C	 0.9964060957	-0.5498158977	-1.1081202552	-0.238321
C	 1.9543222053	-1.3066302619	-0.1767557221	 0.023987
O	 2.1520958571	-0.3677800178	 0.9230445109	-0.334866
C	 0.7345519624	-0.62710719	 1.2209067883	 0.386952
C	 0.2955719245	-0.2641220562	 2.6116059362	-0.511516
C	 1.0006759613	-2.0812927186	 0.7696494844	 0.069569
O	-0.0974533127	-2.803491268	 0.2783089624	-0.433869
H	 0.9308836693	 1.9577956977	 0.2351906506	 0.1274
H	-0.4092491085	 1.9267190233	-0.9217633263	 0.110392
H	-0.7465018941	 1.875007394	 0.8103889141	 0.109051
H	-0.9730294933	-0.427076227	-0.125857213	 0.083406
H	 0.5004288252	-1.2106971615	-1.8229307831	 0.099787
H	 1.512131137	 0.2457612301	-1.6518810537	 0.097928
H	 2.8805726629	-1.7207735197	-0.5763226202	 0.068952
H	 0.3580374557	 0.8155229273	 2.7763788155	 0.130796
H	-0.7434721547	-0.5729458879	 2.7665481652	 0.128585
H	 0.9209548129	-0.761284015	 3.3582234376	 0.123059
H	 1.5629721712	-2.6246371305	 1.5369543615	 0.078427
H	 0.1758719198	-3.7110683638	 0.1158386898	 0.290196
