20
gdb 59294	2.44517	1.53219	1.0317	2.5545	81.95	-0.2102	-0.0193	0.1909	1196.2402	0.17013	-403.156007	-403.146954	-403.14601	-403.190089	33.86	
C	 0.1323907457	 1.3330295896	-0.254116732	-0.315726
N	 0.0030498884	-0.0736189666	 0.0958833585	-0.072735
C	 0.6265397808	-0.3519051857	 1.3853455654	-0.332239
C	-1.3840662322	-0.5705489992	 0.0524133904	-0.097554
C	-2.1757754721	-0.1166864663	-1.1488219029	-0.093589
C	-2.4079070609	-1.0982124586	-2.0221122696	-0.077569
C	-1.8308305522	-2.4152792502	-1.5854557131	-0.362349
C	-1.3366521511	-2.1078851978	-0.1653174894	 0.411414
O	-0.9867986309	-2.9237024402	 0.6464212217	-0.310298
H	 1.190083939	 1.610501984	-0.2119190611	 0.119865
H	-0.2199715689	 1.5101578136	-1.2731634267	 0.121385
H	-0.4191166722	 2.0090284784	 0.4281303134	 0.08836
H	 0.1713460461	 0.2325735096	 2.2085892202	 0.087232
H	 0.529406399	-1.4108506754	 1.6275399827	 0.154025
H	 1.6899636597	-0.0981180264	 1.3362006396	 0.113357
H	-1.9162382486	-0.3378856309	 0.9958100495	 0.073528
H	-2.5309271415	 0.9006869885	-1.2579648764	 0.108442
H	-2.9716515526	-0.9847886372	-2.9412599356	 0.105349
H	-2.55387457	-3.2389472585	-1.5636718097	 0.135138
H	-0.9942758956	-2.7540973106	-2.2108627149	 0.143964
