19
gdb 118329	1.98458	1.15602	0.83131	3.0659	73.92	-0.2349	-0.0349	0.2	1430.0944	0.157564	-456.383618	-456.373378	-456.372433	-456.419819	36.047	
C	 0.2702594253	 1.1150937686	-0.7071976452	-0.393184
C	 0.1074585938	-0.3577874327	-0.3476083069	-0.11293
N	-1.2288297059	-0.6192331196	 0.1890202328	-0.318092
C	-1.4660169619	-1.9803611258	 0.6130209016	-0.156354
C	-2.2447033092	-2.0227991077	 1.9238310245	 0.149945
O	-2.4628946399	-1.0410383359	 2.5874292515	-0.254855
C	-2.2323390532	-2.8616251727	-0.404404012	 0.382325
N	-2.7415771458	-2.1644135254	-1.4433735768	-0.511801
O	-2.354053286	-4.0574802075	-0.2198201069	-0.371647
H	 1.2639914675	 1.3031651291	-1.1233069185	 0.12207
H	-0.4785486682	 1.4223491989	-1.4433356301	 0.122903
H	 0.1531587264	 1.7505941226	 0.1777970186	 0.122736
H	 0.2407525428	-0.9762422583	-1.2438854892	 0.1105
H	 0.9006407484	-0.658975586	 0.3597805596	 0.091755
H	-1.4321847658	-0.0055500392	 0.9751346765	 0.237286
H	-0.5394669296	-2.5458882708	 0.8185841191	 0.118705
H	-2.5896307291	-3.0323417281	 2.2146998886	 0.127607
H	-2.6151082773	-1.1632404843	-1.4491822447	 0.26907
H	-3.302225372	-2.6356538553	-2.1327011424	 0.263963
