17
gdb 46327	3.06637	1.3117	1.19384	1.0319	68.73	-0.2522	-0.0375	0.2147	1085.1168	0.135764	-458.959851	-458.95195	-458.951006	-458.993112	29.102	
O	-0.2460317548	 0.062437833	-0.3545484608	-0.279872
C	-0.1461773047	 1.2204042554	-0.0855231369	 0.279276
C	-1.0726642874	 2.3421108607	 0.3912493685	-0.195926
O	 0.0473597862	 3.2498408489	 0.370770176	-0.319067
C	 0.9960199076	 2.2442617167	-0.0862231346	 0.300324
C	 2.1925584806	 2.0369680831	 0.8681219712	-0.306013
C	 3.4185676364	 2.1580556622	-0.0559000412	-0.080928
O	 2.9898539968	 2.9763774281	-1.1337566983	-0.237243
C	 1.672742357	 2.5582590201	-1.4358412607	-0.143393
H	-1.8677371971	 2.6197849778	-0.3124500836	 0.134851
H	-1.5023275196	 2.2100426478	 1.3921715869	 0.134821
H	 2.1604082368	 2.8468575244	 1.6012224095	 0.13742
H	 2.1504185402	 1.0827991206	 1.3987077254	 0.121977
H	 4.2777565282	 2.6405622995	 0.415157797	 0.118727
H	 3.7290865484	 1.1660886369	-0.4217651619	 0.099295
H	 1.681843853	 1.6456285541	-2.0553758253	 0.107403
H	 1.1573469424	 3.3586100807	-1.9700703314	 0.128348
