15
gdb 128045	6.9697	0.77619	0.70408	2.3967	72.96	-0.2442	-0.0172	0.2271	1538.1587	0.113437	-450.116875	-450.108585	-450.107641	-450.151175	28.732	
C	-0.0277527419	 1.3929342773	 0.0220326346	-0.317828
N	 0.2489458748	-0.0263063884	 0.1170609807	-0.19581
C	 0.5579501428	-0.6239415162	-0.9395088843	 0.108981
O	 0.7916286627	-1.973941012	-0.8864750095	-0.23574
C	 1.2661442236	-2.5922244267	-1.9886376371	 0.400366
N	 1.8210546026	-1.9776395085	-3.0285911676	-0.300862
N	 2.1337863064	-3.0001309896	-3.8268411842	-0.072186
N	 1.8390300284	-4.2105229971	-3.3860922246	-0.182416
C	 1.2748261973	-3.9820807865	-2.2006781745	-0.142113
H	 0.6495283795	 1.9385076634	 0.6879955756	 0.13472
H	 0.0745259826	 1.8043714137	-0.9943164604	 0.103926
H	-1.0465800572	 1.5873456032	 0.3745870032	 0.134195
H	 0.6583920626	-0.1936386304	-1.9401870967	 0.126291
H	 2.5818958755	-2.8518185178	-4.7157830557	 0.298196
H	 0.9144567202	-4.7791578644	-1.5729413892	 0.14028
