18
gdb 40394	3.83863	1.3507	1.20889	2.0165	74.62	-0.2263	0.0642	0.2905	1063.8039	0.147691	-401.829417	-401.822005	-401.82106	-401.861444	29.409	
C	-0.5011689419	 1.1948956379	-0.3219696889	-0.166363
O	 0.6950568081	 1.3965324828	 0.4326401427	-0.234409
C	 0.2884741238	 0.0522513271	 0.1539929908	-0.045388
C	-0.1549261619	-0.7557148636	 1.3206149651	 0.296861
C	-1.3448543052	-1.6346744909	 1.2974922871	-0.289996
N	-1.3857840984	-0.398235884	 2.1071629275	-0.178027
C	-0.5541871516	-0.5617194192	 3.3685247872	 0.013481
C	 0.1613400403	-1.8650854495	 3.5874982191	-0.31413
C	 0.7071086671	-0.8686344558	 2.60129472	-0.118552
H	-1.4223394853	 1.4382636324	 0.2020889659	 0.136543
H	-0.4478848215	 1.4838426136	-1.3706465563	 0.111029
H	 0.9379805149	-0.4660816507	-0.5544181805	 0.09339
H	-1.9870576301	-1.5603940257	 0.4242536634	 0.122486
H	-1.3541159407	-2.6118426379	 1.7653521267	 0.121673
H	-0.7428020118	 0.1508449815	 4.1604338213	 0.107832
H	 0.7065237821	-1.8850611679	 4.5269670316	 0.121607
H	-0.2288038441	-2.8362854365	 3.3048950193	 0.115022
H	 1.6844697662	-0.4135249338	 2.6803396078	 0.106942
