18
gdb 18191	4.11819	1.64531	1.35899	0.8649	76.63	-0.2515	0.0593	0.3108	943.815	0.155167	-310.638422	-310.631206	-310.630262	-310.669624	28.8	
C	-0.4371486946	-1.110691122	-0.8104415077	-0.462972
C	-0.2134559327	-0.0167985828	-0.3638379638	 0.31996
C	 0.0597863071	 1.3049163459	 0.1879657816	-0.163735
C	-0.3061061688	 1.4381007542	 1.6969273105	-0.236029
C	 0.5842506455	 2.5828663909	 2.2262181089	-0.223808
C	 1.8406034971	 2.5309720538	 1.3676918093	-0.032232
C	 2.4778042283	 1.181081289	 1.1383777325	-0.28537
C	 1.5262887754	 1.7449777458	 0.1150825621	-0.025447
H	-0.633003355	-2.0745416005	-1.2101369446	 0.190312
H	-0.5283504506	 2.0412272087	-0.3772882763	 0.101224
H	-1.3728975787	 1.6244729221	 1.8389345499	 0.106574
H	-0.0783949553	 0.4990365783	 2.2080690772	 0.117697
H	 0.089491861	 3.5510989235	 2.0822851646	 0.099864
H	 0.7856998292	 2.4809606367	 3.2981075341	 0.099186
H	 2.4737991485	 3.4105225412	 1.326261326	 0.081422
H	 3.529140087	 1.1692799509	 0.8731835988	 0.110108
H	 2.169698218	 0.3325268974	 1.7407117023	 0.115222
H	 1.9149380885	 2.0331263471	-0.8547586553	 0.088023
