19
gdb 10752	2.5026	1.98127	1.63791	1.6656	72.19	-0.2177	-0.0261	0.1916	923.2488	0.162647	-365.040025	-365.031067	-365.030122	-365.073113	33.043	
C	 0.6360746165	 1.4818398694	 0.2496426618	-0.407392
C	-0.0290971429	 0.1040774952	 0.0496054762	 0.159886
C	 0.5772746117	-0.9215477861	 1.0299640072	-0.407387
C	-1.5006493973	 0.2669432207	 0.4403571201	 0.158047
O	-2.4655480913	 0.0655845514	-0.2521245093	-0.26706
N	 0.2835640466	-0.3431063065	-1.3041867487	-0.091146
C	-0.5027088466	-1.3411165302	-2.0180951558	-0.23121
C	-0.4677106319	 0.079421228	-2.4793435075	-0.231208
H	 1.7106883129	 1.3881119491	 0.0750390093	 0.135016
H	 0.2358326745	 2.213112618	-0.4590384247	 0.128006
H	 0.4771929965	 1.8606397044	 1.2639145132	 0.116697
H	 0.416415663	-0.625196704	 2.0710121316	 0.116698
H	 0.134906377	-1.9109921945	 0.8799889683	 0.12801
H	 1.6523568045	-0.9958740033	 0.8490220073	 0.135018
H	-1.6260899609	 0.6128395869	 1.4957567871	 0.078506
H	 0.0809347434	-2.1007732896	-2.5327296333	 0.10809
H	-1.438877443	-1.6831779404	-1.5899764525	 0.131677
H	-1.3814175855	 0.6489617843	-2.3472210959	 0.131648
H	 0.1416727729	 0.3652310271	-3.3334710744	 0.108103
