18
gdb 49247	2.93316	1.45538	1.07608	5.373	82.14	-0.2041	-0.0278	0.1763	1116.4633	0.149445	-401.964316	-401.956533	-401.955588	-401.996991	29.713	
O	-0.1005034664	 0.1064470404	 0.4718965815	-0.313938
C	 0.0146405237	 1.3113714733	 0.3260738581	 0.055297
C	 1.2467318674	 1.9917838711	 0.028558943	 0.162715
C	 1.3800842092	 3.32933673	-0.1691937159	-0.077014
N	 2.6399321666	 3.7010833794	-0.5464612219	-0.283111
C	 3.5412595962	 2.5553808292	-0.3902665874	 0.003643
C	 4.1489469145	 2.3023839008	 1.0232764455	-0.232583
C	 3.3863338644	 0.9440379199	 1.0989577993	-0.21656
C	 2.5923943446	 1.3257368352	-0.1828568239	-0.123292
H	-0.8704394989	 1.9841728708	 0.4231540579	 0.041551
H	 0.6000618785	 4.0788605337	-0.0962964556	 0.132122
H	 2.968453258	 4.6439396663	-0.4078005507	 0.248766
H	 4.2599441665	 2.5100222207	-1.2111125395	 0.085875
H	 5.2392790126	 2.2492795036	 1.0687437272	 0.103715
H	 3.8078790024	 3.0367473385	 1.7577409512	 0.101988
H	 4.0393061173	 0.0811064315	 0.9459286913	 0.104748
H	 2.7871447022	 0.7704329817	 1.9943931206	 0.115423
H	 2.5542830411	 0.561226694	-0.9627589508	 0.090656
