16
gdb 129934	3.16472	1.38523	1.00067	0.7709	76.08	-0.1794	0.0148	0.1942	1135.2038	0.127873	-430.264534	-430.256444	-430.2555	-430.297121	30.94	
N	 0.7237488408	 0.7772152027	-1.0245333113	-0.623999
C	 0.241128222	-0.3335303975	-0.3296989347	 0.126374
C	-1.0670858059	-0.7644391026	-0.186448074	-0.094742
N	-1.0472398076	-1.8156552136	 0.6784999767	-0.194038
N	 0.186313105	-2.1244143822	 1.0991648273	-0.310664
C	 0.9733184613	-1.2336021277	 0.4943886905	 0.389277
N	 2.3410542403	-1.2753369146	 0.8115536455	-0.370256
C	 3.4098498388	-0.9843827538	 0.0183437738	 0.089294
N	 3.3281533337	-0.4959981996	-1.162344524	-0.473473
H	 1.6647313094	 0.5868370513	-1.3765673467	 0.262921
H	 0.1082933116	 1.0539283397	-1.7786126885	 0.228754
H	-1.9840160557	-0.3916655608	-0.6140870853	 0.1199
H	-1.8251500032	-2.3582793415	 1.0078619354	 0.27226
H	 2.5352592325	-1.802653395	 1.648404422	 0.259117
H	 4.3530695009	-1.2096251028	 0.5287290962	 0.095691
H	 4.2559079961	-0.334450252	-1.5427840428	 0.223585
