16
gdb 10103	2.14092	1.68832	0.9906	3.8558	68.47	-0.2776	-0.0012	0.2763	1153.9246	0.127047	-383.728913	-383.719734	-383.71879	-383.763612	31.557	
C	-0.3847257937	 1.5202918485	 0.3146365094	-0.398162
C	-0.1464919354	 0.0202654952	 0.1351406561	-0.181368
C	 0.6699050073	-0.3078979639	-1.1212253299	-0.096683
O	 1.967276499	 0.3145857572	-0.9609236499	-0.180337
C	 2.6518339475	 0.613131178	-2.0840049195	 0.177192
O	 3.7393685913	 1.1036786915	-2.0600736163	-0.270063
C	 0.8170289753	-1.7456925876	-1.3352348822	 0.348618
C	 0.9297629324	-2.9290761711	-1.5078528237	-0.437837
H	 0.5618553188	 2.059810418	 0.3969680327	 0.144633
H	-0.9426022889	 1.9385547935	-0.5306944788	 0.115797
H	-0.9649752431	 1.7094129568	 1.2218714237	 0.122109
H	 0.383741297	-0.3944717324	 0.9984801837	 0.128726
H	-1.0972742421	-0.5173079212	 0.0569011225	 0.117744
H	 0.1774806634	 0.1394871036	-1.9968039377	 0.114481
H	 2.0967784002	 0.3655601479	-3.0091776433	 0.085419
H	 1.0350474009	-3.9746764039	-1.6643537667	 0.209729
