17
gdb 51288	3.52402	1.24997	0.9905	2.5838	78.49	-0.2148	-0.007	0.2078	1174.0261	0.138149	-418.014882	-418.007209	-418.006265	-418.047574	29.286	
O	 1.9559297567	 4.1372585014	 0.2066825844	-0.310166
C	 1.0705060837	 3.3266363492	 0.0509844076	 0.148658
N	 1.2221992738	 1.9751299537	-0.1124148966	-0.407758
C	 2.4117618358	 1.2423334503	-0.1553974682	 0.471047
C	 2.497348803	-0.0921562572	-0.2568653651	-0.217722
C	 3.9345963293	-0.5658138536	-0.2848912069	-0.245992
C	 4.7278724692	 0.7378465064	-0.2620789962	-0.041008
N	 4.4849343756	 1.6026890654	-1.4345546375	-0.331775
C	 3.7701893338	 1.870164999	-0.1546151942	-0.151791
H	-0.0016791018	 3.6033731677	 0.0266557144	 0.081849
H	 0.3680535749	 1.4428304061	-0.1929498913	 0.252855
H	 1.6532647513	-0.7660694558	-0.3539705976	 0.082016
H	 4.1759358344	-1.1927408681	 0.5841626449	 0.104393
H	 4.1594480032	-1.1581406798	-1.1802659136	 0.11853
H	 5.6990711797	 0.770882941	 0.2193882557	 0.089256
H	 5.2546066063	 2.2661144249	-1.5097388389	 0.231181
H	 3.9579836311	 2.7900759492	 0.378053949	 0.126429
