22
gdb 18049	3.26041	1.97482	1.47693	0.131	80.82	-0.2718	0.0825	0.3543	947.5242	0.204466	-313.083358	-313.076308	-313.075364	-313.114203	29.271	
C	-0.0026564348	 1.5684896757	-0.1252196414	-0.234431
C	 1.5434348348	 1.5085119123	 0.0196561797	-0.227466
C	 1.3880438754	 0.1088757844	 0.6815000165	 0.001182
C	 1.3292541069	 0.1669695665	 2.2184913527	-0.197584
C	 0.3259496404	-0.8332737416	 2.8090746594	-0.187213
C	-1.0843193101	-0.5518020538	 2.2723483554	-0.185131
C	-1.1393163096	-0.7226730887	 0.7463441998	-0.228374
C	-0.0220306621	 0.0187952828	 0.0118563901	 0.055174
H	-0.4722349804	 2.0676944262	 0.7276450078	 0.099043
H	-0.4154694247	 1.9972693894	-1.0419876603	 0.089761
H	 2.0354859193	 1.4484464033	-0.9554619986	 0.094667
H	 2.0338200504	 2.2881486191	 0.6095525691	 0.089577
H	 2.1017185175	-0.6599172398	 0.3683627456	 0.055186
H	 2.3321502108	 0.0056779443	 2.6304319394	 0.088509
H	 1.0302578347	 1.17384678	 2.5399198778	 0.090388
H	 0.6200705551	-1.8603536731	 2.5496980297	 0.088259
H	 0.3368565296	-0.7723962031	 3.903252549	 0.087041
H	-1.8171716884	-1.2168898601	 2.7427722054	 0.086915
H	-1.3730391868	 0.4709901913	 2.550806784	 0.09151
H	-1.0509036866	-1.7945020209	 0.5201481376	 0.090335
H	-2.1171308828	-0.4100065798	 0.3578632103	 0.088654
H	 0.0919900014	-0.4087468042	-0.990876529	 0.063998
