16
gdb 123621	4.08963	1.5719	1.23907	2.7565	74.35	-0.2198	0.015	0.2349	970.3155	0.12893	-396.917395	-396.911075	-396.910131	-396.947895	25.846	
C	 0.0900247897	 1.4846707229	-0.0422795971	-0.237174
C	 1.3448900484	 0.6777826184	-0.0270494432	-0.163945
N	-0.0003814451	 0.0241310874	-0.0053772399	-0.103734
C	-0.24793457	-0.618191031	-1.3351429229	-0.306344
C	 0.9782262007	-0.3131986758	-2.1488020192	 0.208181
C	 1.6085369407	-0.4868067124	-3.357484358	-0.216054
N	 2.8329179174	 0.1032933421	-3.2175682304	-0.185682
N	 3.0423827637	 0.655410005	-1.996801856	-0.344517
C	 1.9080891555	 0.3982227037	-1.3656414298	 0.362584
H	-0.2488801817	 1.9826920731	 0.8625542799	 0.117587
H	-0.152216998	 2.0018979657	-0.969033839	 0.113474
H	 1.9512417969	 0.5982260599	 0.8690875114	 0.106349
H	-0.3879309253	-1.692966568	-1.1715738745	 0.121438
H	-1.1805812423	-0.2294948167	-1.7590970652	 0.118063
H	 1.3255275231	-0.9709852707	-4.2788162402	 0.136085
H	 3.5701855761	 0.1472606664	-3.9004094659	 0.273689
