19
gdb 46906	3.21648	1.34793	1.04243	4.495	75.31	-0.2559	0.0157	0.2716	1150.4913	0.161428	-423.051146	-423.043371	-423.042427	-423.083824	30.372	
O	 0.0451022486	 0.3184355513	-0.9487884259	-0.314359
C	 0.0285354723	 1.24736803	-0.1854969617	 0.379213
C	-1.3291268935	 1.8389223683	 0.2320049105	-0.302729
C	-1.4695542202	 2.9010744286	 1.3312956162	-0.263029
C	-0.7117395868	 4.1703502712	 0.9981817769	 0.012077
C	 0.136087699	 4.873092442	 2.0242188029	-0.321152
C	 0.7925878573	 4.0682722834	 0.92443426	-0.025062
C	 1.3999786769	 2.731454604	 1.2514826702	-0.092722
O	 1.223544361	 1.7490583179	 0.2156578986	-0.226408
H	-1.7359269942	 2.2404280542	-0.7051246628	 0.141638
H	-1.949180091	 0.9664602172	 0.4598515045	 0.137509
H	-2.5362097987	 3.1235565541	 1.4506286043	 0.107507
H	-1.1468884422	 2.4993820581	 2.2971418036	 0.10602
H	-1.1838320501	 4.797094962	 0.2466117342	 0.09195
H	 0.2180241384	 5.9529354923	 1.9785103597	 0.120394
H	 0.1557172291	 4.4700497467	 3.0323438509	 0.115451
H	 1.2974245606	 4.6188458336	 0.136927481	 0.098045
H	 2.4859043684	 2.8071665575	 1.3490354387	 0.125397
H	 1.0175178152	 2.3400646877	 2.1993198382	 0.11026
