18
gdb 17643	2.7343	1.82606	1.51641	3.07	68.62	-0.2202	0.0222	0.2425	934.2909	0.15297	-381.122384	-381.11342	-381.112475	-381.15611	32.305	
C	-0.5657477131	 1.2931480156	 1.4150492826	-0.382168
C	-0.0271088274	 0.5365291935	 0.20031495	-0.038731
N	 1.2299408905	-0.1294219649	 0.5672762588	-0.079526
C	 1.2077941766	-1.4006630027	 1.2886964945	-0.221904
C	 1.6612121811	-1.3360706066	-0.1300707672	-0.240501
C	-1.1169332427	-0.4062598303	-0.3457815487	 0.395074
N	-1.359320282	-0.3011536113	-1.6836065466	-0.522054
O	-1.7080418072	-1.206399063	 0.3589861071	-0.37137
H	 0.2281270962	 1.9071725734	 1.8468170526	 0.122677
H	-1.4031154361	 1.9389614964	 1.1340341336	 0.113803
H	-0.9216539908	 0.5832328597	 2.1654738442	 0.142602
H	 0.2408038594	 1.2571220693	-0.5838077046	 0.071179
H	 1.9364609464	-1.4818399486	 2.0910234614	 0.109186
H	 0.2462310248	-1.8691630363	 1.4728361182	 0.15173
H	 1.0037769679	-1.7772798177	-0.8765599893	 0.117308
H	 2.7182939326	-1.3752189105	-0.3797147226	 0.110802
H	-0.8752342087	 0.356076052	-2.2687939461	 0.261632
H	-2.0617709974	-0.895608588	-2.093903798	 0.260261
