17
gdb 32481	5.04925	0.85279	0.76729	4.5265	81.62	-0.2415	-0.0564	0.1851	1476.915	0.135669	-421.875359	-421.866815	-421.865871	-421.909413	30.655	
C	 0.1055756078	 1.5572073162	 0.1412913603	-0.368136
C	-0.1189254022	 0.0520668316	-0.0795700591	-0.302891
C	 0.6415329333	-0.494736863	-1.2524976167	 0.26315
C	 0.1259530423	-0.9646046568	-2.429634396	-0.093123
O	 1.0934906722	-1.3691037635	-3.2777362722	-0.156358
C	 2.2824636555	-1.1606975992	-2.6431890727	 0.282213
C	 3.5231383018	-1.5078822727	-3.315422199	 0.070871
O	 3.6186781846	-1.9800586655	-4.4258628984	-0.279634
C	 2.0554675957	-0.6260775009	-1.40104247	-0.354968
H	 1.1631898755	 1.7782037152	 0.3166958355	 0.121367
H	-0.213032401	 2.1326534177	-0.7330930515	 0.125023
H	-0.459940899	 1.9106423771	 1.0086715807	 0.118414
H	 0.1695444092	-0.4925797977	 0.8279958715	 0.115228
H	-1.1875325762	-0.1414888504	-0.2243781012	 0.108983
H	-0.8864308343	-1.0699871906	-2.7879019987	 0.146797
H	 4.4165499362	-1.2903130857	-2.6890385009	 0.075963
H	 2.8154108085	-0.3636641819	-0.6796603016	 0.1271
