15
gdb 33302	5.95083	0.72401	0.68935	6.31	88.88	-0.2654	-0.0457	0.2198	1575.2964	0.113603	-379.616879	-379.609019	-379.608074	-379.649914	28.997	
N	 0.0574803982	-3.7346740837	 0.0262097509	-0.338025
C	 0.0546488918	-2.5722788236	 0.0187506158	 0.17143
C	 0.0502083947	-1.2090933271	 0.0057504279	 0.250397
C	 0.051398653	 0.0011141534	-0.0013480448	-0.040666
C	 0.0270130512	 1.4184677845	-0.063131919	 0.073415
C	-0.7224844576	 2.266714108	-1.1154172596	-0.302476
C	 0.4423811227	 3.3083592448	-1.0718425112	-0.23971
C	 1.1547106082	 2.4433364782	-0.0246409841	-0.083538
N	 0.3279762005	 2.2021620208	 1.1390119685	-0.333428
H	-0.7986974569	 1.7685677863	-2.0830240417	 0.131591
H	-1.7176768766	 2.601497562	-0.8083618108	 0.113098
H	 0.9790056439	 3.3652131001	-2.0206675876	 0.124983
H	 0.1958733977	 4.3230521899	-0.7447609725	 0.113056
H	 2.2204439377	 2.2698067005	 0.0665815867	 0.122434
H	-0.3663094283	 2.9310088858	 1.3000526314	 0.237439
