22
gdb 111490	2.32134	1.48602	1.10998	2.8533	80.51	-0.2361	0.0738	0.3099	1186.3717	0.195768	-404.326866	-404.318041	-404.317097	-404.360047	34.523	
C	 1.0330058394	 1.1066124747	-0.7699536664	-0.40809
C	 0.3121396088	-0.0671299509	-0.086343213	-0.029154
C	 0.2651778359	-1.3655427853	-0.9433346633	-0.243826
C	 1.2540789179	-2.3222721403	-0.2915603073	-0.011918
C	 2.6237855637	-1.8214171808	-0.0179735199	-0.257764
N	 1.6115922818	-1.8474538478	 1.0557406068	-0.11707
C	 0.8933241071	-0.5681973921	 1.2747651681	 0.015668
C	 1.7738063689	 0.3849788048	 2.0767126204	-0.060808
O	 2.1518257648	-0.1961153647	 3.310395499	-0.429762
H	 2.0612384668	 0.876784413	-1.0621105092	 0.122326
H	 0.4949126341	 1.3905053641	-1.680614387	 0.116188
H	 1.0627096687	 1.9881986776	-0.1219405232	 0.122328
H	-0.7122448855	 0.2717902093	 0.098285313	 0.082555
H	-0.735259201	-1.8098111053	-0.9159343809	 0.106765
H	 0.5010511931	-1.1739072274	-1.9954571847	 0.105762
H	 1.0840807627	-3.3898893614	-0.402011018	 0.089942
H	 3.4380806489	-2.5259811672	 0.1247849148	 0.117145
H	 2.9276162979	-0.8714603314	-0.4444483385	 0.116287
H	 0.0499006304	-0.836095906	 1.9232772603	 0.088703
H	 2.6576422167	 0.6715639311	 1.4840654439	 0.081055
H	 1.2253448163	 1.3045265388	 2.3095786163	 0.103032
H	 2.3636527326	-1.117455083	 3.114100249	 0.290638
