17
gdb 13383	6.40596	1.0386	0.91398	1.2233	65.68	-0.2416	0.0306	0.2722	1237.5436	0.142608	-401.014065	-401.005673	-401.004729	-401.048245	28.734	
O	-0.1737127023	 1.4718656141	-0.0522203068	-0.423431
C	 0.0305194491	 0.066114159	-0.0625157737	-0.07288
C	-1.3406235085	-0.5776153532	 0.0939728248	-0.286767
C	-1.291047831	-2.069798886	 0.1014556056	 0.421851
N	-0.2530708932	-2.794489251	-0.0064616822	-0.318697
C	-0.70503929	-4.1918725782	 0.0553751534	-0.18585
C	-2.2445719872	-4.0984279108	 0.2239433489	-0.110737
O	-2.5035369332	-2.6779196955	 0.2401198052	-0.258664
H	 0.6827320865	 1.8972816776	-0.1502556511	 0.287343
H	 0.4933176923	-0.2732173217	-0.9996398299	 0.103916
H	 0.6866682348	-0.2579910154	 0.7572132625	 0.103917
H	-1.8105152239	-0.232180661	 1.0224309838	 0.135969
H	-2.0018404265	-0.2472582165	-0.7158499863	 0.135967
H	-0.4145303697	-4.7206402226	-0.8586994203	 0.115811
H	-0.2217714135	-4.7054556553	 0.8933534529	 0.115811
H	-2.8040762188	-4.5408198983	-0.6052774395	 0.11822
H	-2.6095946251	-4.5254952452	 1.1624180626	 0.11822
