23
gdb 120618	4.38458	0.65643	0.62646	1.901	83.23	-0.2597	0.0744	0.3341	1838.1272	0.203359	-425.404832	-425.393715	-425.392771	-425.441402	39.982	
C	-0.0334084268	 1.6110410657	-0.0628813907	-0.466444
C	-0.0739278303	 0.0995405581	 0.0629433458	 0.34164
C	-1.3154352632	-0.5248142656	-0.5353344715	-0.139048
O	-1.3365537428	-0.251247653	-1.9321610806	-0.421572
C	 1.2097798919	-0.6894753675	-0.0590774123	-0.317802
C	 0.5011439953	-0.6049792765	 1.2754568023	-0.055364
C	 1.107786971	 0.1266476855	 2.4539654806	-0.210284
C	 2.0821393045	-0.7493536075	 3.234989737	-0.062054
O	 2.5808935143	 0.0159302533	 4.3223716482	-0.42268
H	 0.9177811146	 2.0289198371	 0.2744341484	 0.113153
H	-0.1757157512	 1.8954818356	-1.1090734424	 0.135101
H	-0.8327213208	 2.0805916568	 0.5237763479	 0.108055
H	-1.3116659813	-1.6106045992	-0.3488305384	 0.077618
H	-2.210338228	-0.1090474255	-0.0429480724	 0.082578
H	-2.1958421389	-0.5126963605	-2.2752682396	 0.285478
H	 1.1946568624	-1.6263488787	-0.6058636677	 0.108753
H	 2.130343445	-0.1251903129	-0.1736792972	 0.106208
H	-0.0359567988	-1.5072253717	 1.5655042453	 0.073388
H	 1.6442195928	 1.0234319175	 2.1282827716	 0.105903
H	 0.3224920589	 0.4653430621	 3.1414503481	 0.104127
H	 1.5647232237	-1.6561224872	 3.5903369681	 0.080401
H	 2.8953873511	-1.0799153566	 2.5695148617	 0.088627
H	 3.2063254464	-0.5273109094	 4.8103060579	 0.28422
