17
gdb 121722	4.19629	0.6935	0.61379	3.2891	70.41	-0.2635	0.0077	0.2713	1760.018	0.134938	-492.317841	-492.307896	-492.306951	-492.354589	33.706	
O	 0.0991766287	 1.2375744893	-0.527219758	-0.42301
C	-0.1175210656	-0.1181064283	-0.1568095104	-0.077865
C	-1.5761147353	-0.2297654157	 0.2625863664	-0.148173
N	-2.4515225702	 0.1700858722	-0.8208071722	-0.363424
C	-3.4730979451	-0.5930089809	-1.2580024725	 0.546361
O	-3.8263135026	-1.6604284661	-0.8140189412	-0.405822
O	-4.0761637849	 0.0510277969	-2.3265650498	-0.23216
C	-5.1517964913	-0.5672225595	-2.8996322781	 0.121151
N	-5.7064789269	-0.0050169101	-3.8801424329	-0.433278
H	 0.9661134352	 1.3117877493	-0.935727565	 0.296189
H	 0.0776945484	-0.7983947025	-0.9985722462	 0.103107
H	 0.5268742098	-0.4160253528	 0.6839842991	 0.098398
H	-1.8261148912	-1.2577833063	 0.5311522743	 0.147961
H	-1.7445166149	 0.4061958775	 1.1411038535	 0.122976
H	-2.2455976364	 1.0297689664	-1.3045435554	 0.270684
H	-5.4027837299	-1.5099425564	-2.412370125	 0.141769
H	-6.488389978	-0.5741815931	-4.2005417467	 0.235135
