25
gdb 116169	2.8205	1.02541	0.80121	1.1232	89.81	-0.2437	0.0831	0.3268	1536.2834	0.229837	-389.514143	-389.504307	-389.503363	-389.548733	37.584	
C	 0.0556934418	 1.379845579	-0.1055527345	-0.238877
O	-0.011447645	-0.0041335926	 0.1401817524	-0.247247
C	-1.3152649709	-0.5636301612	 0.0627335619	 0.132308
C	-1.8093737202	-0.7179840851	-1.3825927897	-0.2067
C	-3.1639623733	-1.4406775749	-1.4302246704	-0.215395
C	-3.10301983	-2.7967700587	-0.7150895195	-0.17583
C	-2.6061334655	-2.6590331188	 0.733670905	 0.033504
C	-2.5163155939	-4.0171487339	 1.4362526773	-0.401911
C	-1.2579429739	-1.9198607745	 0.7667490769	-0.198307
H	 1.0850766767	 1.6920709585	 0.0898910953	 0.123751
H	-0.1930652239	 1.6433926714	-1.1441422192	 0.104666
H	-0.6161033688	 1.9448665967	 0.5607366112	 0.099371
H	-2.0189226089	 0.0921620275	 0.6080488163	 0.054758
H	-1.8887427187	 0.2600559863	-1.8692229592	 0.088348
H	-1.05658895	-1.2921706621	-1.9386097128	 0.098829
H	-3.9281055793	-0.8126868903	-0.9511450266	 0.092507
H	-3.4824031651	-1.5716526873	-2.4703626722	 0.092357
H	-4.0887821748	-3.2771825243	-0.7274864359	 0.086625
H	-2.423848525	-3.4666600193	-1.2621983255	 0.089945
H	-3.3396789569	-2.0442948073	 1.2779723314	 0.066728
H	-1.7980312431	-4.6728512042	 0.9298161761	 0.112345
H	-2.1893624721	-3.9076566827	 2.475748173	 0.109758
H	-3.4857300616	-4.5270212258	 1.4406986456	 0.107611
H	-0.4901861132	-2.5300746389	 0.2711455119	 0.097402
H	-0.9224944442	-1.7721343276	 1.7992559412	 0.093455
