18
gdb 64614	2.82428	1.42492	1.33125	1.2494	82.65	-0.2384	0.0034	0.2418	1054.8052	0.147353	-364.756473	-364.748271	-364.747327	-364.788724	32.602	
C	-0.0494562812	 1.5736777667	 0.0479255465	-0.424893
C	-0.0050373399	 0.0294303543	 0.0111697414	 0.078858
C	 0.8051641663	-0.4944064472	-1.1804843581	-0.110715
C	 1.8118579809	-1.2878632842	-0.8157234832	-0.062422
C	 1.8865678796	-1.3979291948	 0.6701145713	-0.081715
N	 2.1636153885	-0.0787334511	 1.3147649934	-0.341944
C	 0.7775695001	-0.5683798137	 1.2032989092	-0.084415
C	-1.3646390386	-0.5161496577	-0.0236202584	 0.31385
C	-2.4820990494	-0.9599815108	-0.0489084075	-0.485296
H	 0.9672288769	 1.9602031279	 0.140356801	 0.142998
H	-0.506483916	 1.9673727909	-0.8641843856	 0.118951
H	-0.6433216361	 1.918713952	 0.8991985419	 0.119639
H	 0.5568700146	-0.1971749888	-2.1927277	 0.104042
H	 2.5181486896	-1.7609607048	-1.487173249	 0.103071
H	 2.2364542179	-2.3008769403	 1.1582950897	 0.092829
H	 2.4795491975	-0.2377819911	 2.2704548209	 0.228393
H	 0.2297089433	-0.8305887891	 2.101088087	 0.09594
H	-3.4671950141	-1.3554743181	-0.0759552405	 0.192829
