25
gdb 118237	3.75203	0.62278	0.58568	1.5936	90.29	-0.2616	0.0835	0.3452	2029.534	0.227149	-389.480448	-389.46944	-389.468496	-389.51765	39.667	
C	 0.2565896506	 1.5634480238	 0.0455598765	-0.378267
C	 0.1120916295	 0.039051077	 0.0062052906	-0.177849
C	 0.5920062709	-0.5664386194	-1.3186352204	-0.163953
C	 0.5817335961	-2.105215081	-1.3824031576	 0.037754
C	-0.8359757598	-2.681274138	-1.2510635992	-0.397789
C	 1.2721642251	-2.5793340294	-2.6789757544	-0.230916
C	 1.5448706435	-4.0635334325	-2.7269029961	 0.092022
C	 2.7894372215	-4.6120596851	-3.2800962297	-0.181633
O	 2.5873973896	-4.54323222	-1.8680167076	-0.237667
H	 1.3015716358	 1.8661865081	-0.0851049457	 0.113181
H	-0.3252233438	 2.0370593376	-0.7532729804	 0.112444
H	-0.0922335155	 1.9738217588	 0.9984179429	 0.11025
H	 0.6834940629	-0.4045552254	 0.8325387866	 0.095867
H	-0.9366573181	-0.2257566791	 0.1841856092	 0.098162
H	-0.0178595998	-0.1668710069	-2.1428353014	 0.086306
H	 1.6166128482	-0.2174291949	-1.5073884717	 0.088381
H	 1.1855204631	-2.4807082746	-0.5443858818	 0.088521
H	-0.8338968431	-3.7748024557	-1.2814071954	 0.11591
H	-1.3038291839	-2.388668717	-0.3072744906	 0.117869
H	-1.4787091482	-2.3254512125	-2.066085163	 0.10809
H	 0.6556600597	-2.303499312	-3.5466975055	 0.09415
H	 2.2281553276	-2.0537359285	-2.7885564732	 0.095793
H	 0.6691786567	-4.7139042427	-2.7465883421	 0.09149
H	 2.8031433748	-5.6157238818	-3.7036702093	 0.11144
H	 3.5426776766	-3.9325674487	-3.6779508706	 0.110444
