23
gdb 100314	2.28927	1.28104	1.1398	1.0548	81.33	-0.2387	0.081	0.3196	1256.9967	0.202716	-425.396287	-425.385621	-425.384677	-425.431391	39.338	
C	 0.8520536593	 1.4278361293	 0.5778210278	-0.400214
C	 0.9816091694	-0.0674466161	 0.267946318	-0.213454
C	 0.8065840309	-0.4485539533	-1.2191494042	 0.307682
C	-0.5522760289	 0.0076487191	-1.7704070824	-0.412242
O	 1.7619224551	 0.182942439	-2.0740555051	-0.29462
C	 3.1298364415	 0.2009891731	-1.6860448645	-0.257749
C	 0.8537726253	-1.9735470985	-1.3503042514	 0.094967
C	 1.3945626973	-2.653074806	-2.5298515527	-0.193852
O	 2.1181857816	-2.6366017768	-1.2899096763	-0.251477
H	 1.5036915935	 2.0279656222	-0.0632711638	 0.13041
H	-0.171485855	 1.7851287165	 0.4321425458	 0.11838
H	 1.1234483183	 1.6276853988	 1.61882468	 0.112588
H	 1.954413483	-0.4384848687	 0.6085886917	 0.113775
H	 0.235190483	-0.6266186984	 0.8452950435	 0.09471
H	-0.633707264	 1.0953523027	-1.7313845727	 0.127766
H	-0.6524355052	-0.300755486	-2.8144672447	 0.123226
H	-1.37730636	-0.4267238606	-1.1973703118	 0.110318
H	 3.5087437888	-0.7963060187	-1.4512351051	 0.141169
H	 3.6742823735	 0.6026585126	-2.5451781859	 0.119128
H	 3.3088444558	 0.8654719732	-0.830269633	 0.104057
H	 0.0682602907	-2.4825980371	-0.7867654244	 0.085686
H	 1.0038951929	-3.626142109	-2.8229055711	 0.112593
H	 1.8299510633	-2.0530235174	-3.324537398	 0.127151
