21
gdb 63988	2.86538	1.43305	1.2715	1.0928	77.38	-0.2445	0.0775	0.322	1090.1708	0.183306	-424.224064	-424.215734	-424.21479	-424.256671	33.372	
C	 0.3054566245	 1.4913189448	-0.2015310352	-0.467969
C	 0.0355433483	 0.0027451891	-0.0313751487	 0.420074
O	-1.3579943394	-0.2495010925	 0.1023438671	-0.481187
C	 0.7400586062	-0.9367509887	-1.0628399426	-0.288267
C	 1.4598074287	-1.686230719	 0.0909331096	-0.028046
C	 2.9473948955	-1.3685372339	 0.2763949644	-0.09426
O	 3.0003315984	-0.0801698563	 0.8839800897	-0.250159
C	 1.9260755088	-0.0431192803	 1.8202456852	-0.111198
C	 0.7581915855	-0.7474953632	 1.1320345176	-0.065135
H	 1.3780296118	 1.6965711164	-0.2502320723	 0.139248
H	-0.1456883856	 1.8486833772	-1.1362251911	 0.100249
H	-0.1308227339	 2.0623236766	 0.6243575126	 0.119415
H	-1.8008526972	 0.1338228165	-0.6630909034	 0.271606
H	 0.0271814806	-1.5503972851	-1.6180781646	 0.096304
H	 1.4087914111	-0.4336583638	-1.7682482865	 0.093562
H	 1.2498731185	-2.7541740821	 0.1577244985	 0.073441
H	 3.4201947548	-2.1187193369	 0.9316919569	 0.085952
H	 3.5132130765	-1.3187735048	-0.6585545079	 0.105949
H	 2.1995386873	-0.5830678456	 2.7418513879	 0.088481
H	 1.7434091207	 1.0034649167	 2.0765089627	 0.110569
H	 0.0509703388	-1.2018354549	 1.82594199	 0.081371
