19
gdb 88637	3.41145	1.06743	0.97464	3.9424	75.96	-0.2726	0.0106	0.2833	1276.7432	0.15904	-423.045672	-423.037085	-423.036141	-423.07945	32.128	
C	 0.2603861666	 1.6288262022	-0.1783769613	-0.4222
C	-0.0803710756	 0.1709081544	 0.0484085309	-0.000586
C	 0.9521126956	-0.9172142467	-0.1398338665	-0.304189
C	 0.4134644628	-0.6188855584	 1.2396495066	-0.030694
C	 1.2831796835	-0.0538484064	 2.3302724208	 0.100147
C	 2.206442459	-1.0380542493	 3.0808222771	-0.428918
C	 3.3280702499	-0.1734229006	 2.5119109747	 0.451081
O	 4.5139804252	-0.1210615666	 2.5477205169	-0.313528
O	 2.4735004847	 0.6717625173	 1.8451364975	-0.245812
H	 1.2807417637	 1.8591078709	 0.1340247411	 0.149513
H	 0.1657606053	 1.8814902285	-1.2400450541	 0.117676
H	-0.4191359546	 2.2848623273	 0.3775883777	 0.113118
H	-1.0871220396	-0.0958353392	-0.2646479048	 0.086018
H	 0.6641287105	-1.8450093918	-0.6214840766	 0.11148
H	 1.966037487	-0.5947548937	-0.3508518814	 0.132927
H	-0.2943426312	-1.3382076434	 1.6470779137	 0.093111
H	 0.7204043132	 0.6111248681	 2.9925094693	 0.101895
H	 2.1452388645	-1.0427204569	 4.1700718541	 0.142664
H	 2.2047562096	-2.0620318256	 2.7025063745	 0.146301
