16
gdb 12056	4.13691	1.66635	1.53172	2.6912	64.65	-0.2406	-0.0323	0.2082	871.2664	0.128279	-383.705349	-383.697718	-383.696773	-383.737406	28.358	
C	 0.0215935753	 1.6661675648	-0.0441779432	-0.45102
C	 0.0800948693	 0.156172277	 0.009751786	 0.301223
O	 1.1111103585	-0.4420675977	-0.8444586026	-0.332196
C	 1.5971475351	-1.2252089021	 0.2493282481	 0.105052
C	 2.1539957442	-0.3456252485	 1.3161591674	-0.310962
C	 0.6564976905	-0.5731870055	 1.2382012665	-0.163222
C	-1.247134689	-0.498074479	-0.3669484195	 0.141944
O	-2.3227517859	 0.027956243	-0.2559472098	-0.250856
H	 0.9287952518	 2.1137359361	 0.3662127349	 0.120468
H	-0.094244657	 1.9999123892	-1.0797904408	 0.135992
H	-0.8457657317	 2.0162165866	 0.5210085432	 0.144275
H	 1.8705609982	-2.2551626216	 0.0555385715	 0.111201
H	 2.6278758606	-0.8611537439	 2.1459600855	 0.12246
H	 2.5966769282	 0.6097666199	 1.052193502	 0.123461
H	 0.0752196642	-0.9830072193	 2.0527819505	 0.112433
H	-1.1267750123	-1.533828759	-0.7533712297	 0.089748
