18
gdb 69408	3.23993	1.19046	1.1322	1.529	83.08	-0.2359	0.0076	0.2435	1169.4267	0.147119	-364.761605	-364.753297	-364.752353	-364.794219	32.608	
C	-0.1314685027	 1.5636574018	 0.0160779942	-0.495587
C	 0.0606797608	 0.0704554209	-0.0153319224	 0.3109
N	-0.7498989779	-0.8122144041	 0.8801700915	-0.37617
C	 0.7138312843	-0.7298108239	 1.0558714412	-0.109544
C	 1.4697240033	-1.9015309924	 0.4073465396	-0.202104
C	 1.14151128	-1.717190292	-1.0743582322	-0.087974
C	 0.3934522222	-0.6372214954	-1.2935032792	-0.107119
C	 2.9047711432	-1.8792931688	 0.6781010367	 0.313687
C	 4.0856167453	-1.8499441758	 0.9019160394	-0.467256
H	 0.7206780359	 2.0788329832	-0.4396128666	 0.131902
H	-1.0326186221	 1.8573759156	-0.5346026921	 0.126754
H	-0.2334060647	 1.9265556431	 1.044057939	 0.116143
H	-1.1861452389	-0.2343740544	 1.5986164747	 0.222209
H	 1.1201403577	-0.2758282868	 1.9529895945	 0.096903
H	 1.0523047778	-2.8514377003	 0.7685912342	 0.124722
H	 1.4820003879	-2.4253885164	-1.819764895	 0.108274
H	 0.0286188721	-0.308556251	-2.2598827402	 0.099869
H	 5.1288516459	-1.8299400233	 1.0984678825	 0.194392
