16
gdb 112537	2.4528	1.22616	1.08431	4.2476	65.12	-0.2676	-0.0123	0.2554	1163.3893	0.123028	-474.996533	-474.987445	-474.9865	-475.031411	32.109	
O	 0.0029326347	 1.1714662599	-0.5933307117	-0.421599
C	 0.0445511933	-0.195078678	-0.2300405876	-0.069434
C	-1.332840385	-0.6368095218	 0.2403197087	 0.090601
O	-2.3097286918	-0.4675652918	-0.8355691107	-0.302946
C	-2.5897443877	-1.8761948168	-0.8890686303	-0.063896
C	-2.2047903129	-2.5098098338	-2.1508012513	 0.285846
N	-1.9084849636	-3.0400905706	-3.1338026332	-0.313621
C	-1.6276427348	-2.1493099652	 0.3194481967	 0.036021
O	-0.4969710962	-2.9371517259	 0.1013146133	-0.403316
H	-0.6546110961	 1.2480848434	-1.2949605899	 0.29511
H	 0.3810530935	-0.8325565335	-1.057560435	 0.116401
H	 0.7675579232	-0.2924003173	 0.5857582624	 0.120928
H	-1.6376060385	-0.0525327712	 1.1145846114	 0.099336
H	-3.6493954374	-2.0814258079	-0.6963408689	 0.128497
H	-2.1787449826	-2.4519229315	 1.217037602	 0.099371
H	-0.7490867483	-3.8663427879	 0.0830090041	 0.302702
