19
gdb 83755	2.51492	1.85018	1.45712	2.1945	73.87	-0.2482	0.0874	0.3356	975.5191	0.160577	-423.003641	-422.996001	-422.995057	-423.035289	30.723	
C	-0.0367977405	 1.518389306	 0.0524375533	-0.514151
C	-0.0197943065	 0.0198619589	-0.0379392467	 0.298475
C	-0.9281505129	-0.8568423453	 0.804928233	-0.123755
C	-1.5104153035	-2.1290820208	 0.2153246045	-0.119761
O	-0.3882722726	-2.8421436996	-0.3371186208	-0.283831
C	 0.7565878242	-1.9853169875	-0.2488677992	 0.022734
C	 0.5577458788	-1.0241482248	 0.9337048701	-0.137096
C	 0.5533643038	-0.7841475696	-1.2182166866	 0.094784
O	-0.2135820013	-1.0194763259	-2.3690664173	-0.454581
H	 0.9375624522	 1.940089543	-0.2195369056	 0.1201
H	-0.7836407428	 1.94253222	-0.6281463396	 0.132741
H	-0.278717033	 1.8582544411	 1.0651301933	 0.116271
H	-1.4728699027	-0.3543419184	 1.5966169619	 0.091905
H	-1.9782916095	-2.7526102686	 0.9871842262	 0.108176
H	-2.2503945228	-1.9365388237	-0.571344708	 0.105603
H	 1.652141649	-2.5974438867	-0.3393365537	 0.083896
H	 1.1464052957	-0.9207306819	 1.8347066408	 0.091925
H	 1.5133608215	-0.3448440039	-1.5167156321	 0.07625
H	-0.6168635672	-1.8884999224	-2.2357126135	 0.290315
