16
gdb 77187	3.00243	1.24691	1.02923	2.0519	66.38	-0.2711	0.0122	0.2833	1160.4674	0.123153	-474.983487	-474.974993	-474.974049	-475.017387	30.379	
O	 0.3574709277	 1.0490463683	 0.3811457958	-0.430396
C	 0.1024377347	-0.2728466868	-0.0130567112	-0.023051
C	-1.3991610583	-0.607826613	-0.1895838366	 0.080278
O	-1.1548814391	-0.9316374034	-1.6012789858	-0.266489
C	 0.1697565197	-0.5630757655	-1.5017326479	 0.420328
N	 1.0711931756	-0.450371504	-2.3629338103	-0.553522
C	-1.9531913258	-1.7668346077	 0.5867849828	 0.040967
C	-2.5307063267	-2.9442868596	-0.0720967369	-0.169313
O	-1.2200521319	-2.986073362	 0.501533995	-0.231505
H	 1.2088200421	 1.3018033141	 0.0055686818	 0.303599
H	 0.6379069866	-1.0109762534	 0.5970964056	 0.118888
H	-2.0382435322	 0.2759799018	-0.1075434557	 0.110664
H	 0.7403176753	-0.6825800495	-3.3007614766	 0.233411
H	-2.2922536797	-1.5053600752	 1.5906378146	 0.108188
H	-3.28687537	-3.5300978516	 0.4473502637	 0.120933
H	-2.5580381879	-2.9778606925	-1.1579801283	 0.13702
