25
gdb 93838	2.27475	1.32413	1.00443	1.2402	88.45	-0.2387	0.0772	0.3159	1341.0938	0.229544	-389.516128	-389.506338	-389.505393	-389.549931	38.391	
C	-0.1331879291	 1.5723631999	-0.004047322	-0.40708
C	-0.0183381801	 0.0464930574	 0.0128283289	 0.014485
C	 0.7072695489	-0.4716138025	-1.2343085092	-0.074448
O	 0.8473835428	-1.8821299826	-1.2361415971	-0.268327
C	 1.57155132	-2.4146638076	-0.1246183645	 0.126341
C	 3.0710328439	-2.1011914672	-0.2188228799	-0.411939
C	 0.8909120944	-2.0019251899	 1.200410993	 0.015215
C	 1.6021571213	-2.5540050021	 2.43934052	-0.415388
C	 0.7040454692	-0.4771687427	 1.2631318406	-0.199789
H	 0.8569824797	 2.0434755065	-0.0113199811	 0.11245
H	-0.6751981198	 1.9239426905	-0.888754869	 0.112114
H	-0.6659160112	 1.9369239436	 0.880363172	 0.113393
H	-1.0293403877	-0.3844931041	 0.0004843959	 0.075197
H	 0.1425714097	-0.2312714452	-2.1412259747	 0.100757
H	 1.6886065545	 0.0249600765	-1.3211157124	 0.080154
H	 1.4559008113	-3.4992482619	-0.2391763765	 0.076507
H	 3.3041792185	-1.0525601029	-0.0137054056	 0.11624
H	 3.6358283101	-2.7111942242	 0.4915828254	 0.117214
H	 3.4244998823	-2.3366756567	-1.2265832646	 0.123161
H	-0.1127115367	-2.4476925011	 1.1603018029	 0.075996
H	 2.584375092	-2.0918584902	 2.5833498203	 0.116448
H	 1.0123426222	-2.3579713686	 3.3409180793	 0.112291
H	 1.7492989401	-3.6375604979	 2.3681238494	 0.111045
H	 1.6813473023	 0.0188777153	 1.3543530254	 0.089716
H	 0.1422838014	-0.2091526925	 2.1668671534	 0.088247
