17
gdb 96834	3.3715	1.21404	0.90256	4.4049	83.27	-0.2188	-0.0684	0.1504	1277.3025	0.13479	-418.055438	-418.046067	-418.045122	-418.090397	33.075	
C	 0.1268513258	 1.387028736	 0.0820414031	-0.347128
N	-0.0194740427	-0.058936789	 0.1250124508	-0.306927
C	-1.1631738402	-0.595073357	 0.0583254385	 0.295693
N	-1.3199424327	-1.9847397197	 0.0985599873	-0.389148
C	-2.6471674678	-2.3353113571	 0.0106864553	 0.379961
C	-3.0339792887	-3.774233275	 0.0343213443	-0.500209
C	-3.4483888818	-1.2361458674	-0.0914213242	-0.34948
C	-2.6140092402	-0.0505239351	-0.072291301	 0.326585
O	-2.9177509271	 1.1263934717	-0.1392554193	-0.354985
H	 0.7903088578	 1.6374881085	-0.7544431878	 0.128677
H	-0.8108164365	 1.9362785856	-0.013393216	 0.165318
H	 0.650662089	 1.7035829099	 0.9920564794	 0.128797
H	-0.5442590079	-2.6193746074	 0.1811766099	 0.261156
H	-2.6922108753	-4.2527731873	 0.9595210556	 0.148389
H	-4.1166042867	-3.8852644845	-0.0362735026	 0.151502
H	-2.5715412504	-4.3138045514	-0.8004956738	 0.148801
H	-4.5237083747	-1.2400725308	-0.1728802094	 0.112998
