17
gdb 84639	2.42227	1.8327	1.26678	2.0948	73.68	-0.2313	-0.036	0.1953	1010.9788	0.136776	-418.003308	-417.995458	-417.994514	-418.036213	29.638	
C	-0.6970895548	 1.2926162676	 0.0308496819	-0.382089
C	 0.0394883565	-0.0574036656	-0.0447958701	-0.077347
N	 0.691843296	-0.1823665497	-1.3458548045	-0.205538
C	 1.9415224315	-0.3585615199	-1.4327254936	 0.042153
N	 2.9007766425	-0.552545757	-0.3999328786	-0.122106
C	 3.2205945706	 0.6585974628	 0.3668918513	-0.249966
C	 2.3859850351	-0.4279053178	 0.9715537455	-0.116764
C	 0.9171633022	-0.2600141254	 1.1915400741	 0.377572
O	 0.4405757749	-0.3491922504	 2.3005724887	-0.326609
H	 0.0093918408	 2.1274441669	-0.0194522118	 0.116522
H	-1.3874765029	 1.3810988515	-0.8106212221	 0.134855
H	-1.2510483729	 1.3579579788	 0.9694750665	 0.142695
H	-0.7255037979	-0.8438980981	 0.011693923	 0.129075
H	 2.3975328277	-0.3963971533	-2.4225868494	 0.125856
H	 4.2524969787	 0.757162891	 0.6887037948	 0.143152
H	 2.7300610595	 1.5818718586	 0.07153354	 0.140882
H	 2.8650362625	-1.07689314	 1.6995044046	 0.127659
