18
gdb 110238	2.11938	1.67641	1.11241	2.9145	74.94	-0.2527	0.0203	0.2729	1146.6015	0.145685	-439.047195	-439.038242	-439.037297	-439.080977	32.846	
C	 0.2928326034	 0.9530012235	 0.4815273232	-0.243764
O	-0.3959165867	-0.0069276271	-0.3045508073	-0.232293
C	 0.3821035814	-0.5521030064	-1.3024112049	 0.068596
C	 1.4936483238	-1.5814404798	-1.0387631802	-0.33873
C	 0.9994569413	-2.5226920471	 0.006882865	 0.461267
N	 1.476667306	-2.9991310415	 1.0629117026	-0.564086
O	-0.2175634586	-2.7701798455	-0.6215350658	-0.290007
C	 0.1838752722	-1.9507348528	-1.7543232644	 0.393343
C	-0.152409801	-2.4639857173	-3.1129053205	-0.492903
H	 1.1623639518	 0.5068760099	 0.9810655921	 0.132483
H	 0.6297363313	 1.8049492419	-0.1274287024	 0.107264
H	-0.4133547228	 1.3100874849	 1.2333599554	 0.135158
H	 0.6579363738	 0.1397701683	-2.1042162938	 0.098451
H	 2.511758745	-1.4725185202	-1.384298382	 0.11834
H	 0.8222037864	-3.650584494	 1.4995860958	 0.230043
H	-1.238895871	-2.5029663022	-3.2458780118	 0.145419
H	 0.2613165104	-1.8053733838	-3.8814690767	 0.13148
H	 0.2488470434	-3.4709878709	-3.2589314143	 0.13994
