14
gdb 47120	3.33086	1.26084	0.9333	3.6084	73.79	-0.2387	-0.057	0.1818	1162.3028	0.102691	-432.898581	-432.89086	-432.889916	-432.931241	28.375	
N	-0.1403392321	 1.1975847052	-0.4630639718	-0.564895
C	-0.01054686	 0.0504018926	 0.0561264661	 0.455381
N	-1.1269368928	-0.6229776875	 0.5431398931	-0.420234
C	-1.091448978	-1.9855086645	 0.8322845867	 0.285923
C	 0.080535176	-2.5806268769	 1.0964191772	-0.204676
C	 1.2887760301	-1.6997752642	 1.0913570075	-0.136792
O	 1.1623046797	-0.6252041458	 0.1369668555	-0.248708
C	-2.3421700433	-2.6766364094	 0.8315283277	 0.221654
N	-3.366256179	-3.2151816239	 0.8367732208	-0.318928
H	 0.7680620744	 1.5662473369	-0.7353585649	 0.232187
H	-2.0052770329	-0.1742998902	 0.3365836592	 0.284063
H	 0.1527416323	-3.6375073014	 1.3058593788	 0.135697
H	 1.4673173094	-1.2648665013	 2.0868847564	 0.135922
H	 2.1901020763	-2.2404409696	 0.7954706976	 0.143406
