21
gdb 121381	4.3304	0.85343	0.75565	1.4177	82.37	-0.2415	0.0166	0.2581	1560.9749	0.182359	-424.220557	-424.211329	-424.210385	-424.255296	33.922	
C	-0.0385152553	 1.5153244463	-0.0664286474	-0.384352
C	 0.0551547974	 0.0014554583	 0.0250741199	-0.037543
O	 0.6317781115	-0.4817664581	-1.1733745362	-0.258439
C	 0.7439608775	-1.896205271	-1.2520311753	 0.080711
C	 0.7943375456	-2.2524562891	-2.7409894995	-0.116139
O	 1.1179344196	-3.6175604988	-2.9204704302	-0.249201
C	 2.423040367	-3.9382314198	-2.4782431963	-0.111093
C	 2.7712167591	-3.3203740319	-1.1530799454	-0.079986
C	 1.9962360861	-2.404550682	-0.5780320448	-0.077755
H	 0.9556805383	 1.9547966879	-0.1871024082	 0.127317
H	-0.6487182726	 1.8094488501	-0.9250672523	 0.126777
H	-0.4922103118	 1.9249739528	 0.8410153607	 0.114328
H	 0.6599930671	-0.2893843594	 0.8990094089	 0.088216
H	-0.9450413691	-0.4417199595	 0.1660766996	 0.087954
H	-0.1486124797	-2.3590989486	-0.7985802527	 0.076518
H	-0.1780050741	-2.0935380747	-3.2131478394	 0.109119
H	 1.5289719243	-1.593283989	-3.2295188439	 0.100073
H	 2.4648077502	-5.0324650818	-2.4174138477	 0.117506
H	 3.1723506024	-3.6344099143	-3.2332964775	 0.10008
H	 3.698275976	-3.6504886196	-0.6908716537	 0.094178
H	 2.2599052904	-1.9715796875	 0.3828562614	 0.091732
