18
gdb 17543	4.3982	1.81171	1.69491	1.2547	70.74	-0.218	0.0898	0.3078	844.4021	0.154981	-347.777421	-347.770743	-347.769799	-347.807959	27.37	
C	-0.4751480166	 1.1048605231	-0.1592981135	-0.316546
C	 1.0319147385	 1.1180397999	 0.0402678801	-0.34665
C	 0.287363863	-0.1728539195	 0.0825494665	 0.444397
C	 0.0873672485	-1.0292766143	 1.3335776755	-0.303651
C	-0.4393988882	-2.3368420555	 0.7627506044	-0.073168
C	-1.5812589914	-2.2454735067	-0.2373996213	-0.323454
C	-0.1513347263	-2.2614137165	-0.7106636291	 0.110136
O	 0.4716784035	-1.0400968156	-1.0218613305	-0.291178
H	-1.1070015241	 1.4954847348	 0.6323456754	 0.107609
H	-0.8403329347	 1.2736143783	-1.1661604146	 0.120153
H	 1.6483825528	 1.2984183192	-0.8331485449	 0.125425
H	 1.4318816363	 1.512084637	 0.9686234912	 0.113533
H	 1.041777144	-1.2105793181	 1.842043872	 0.107031
H	-0.5886973061	-0.5495205945	 2.0476699861	 0.105568
H	-0.3029472494	-3.2496817861	 1.3300519689	 0.088705
H	-2.1646577444	-3.1455981049	-0.3998569815	 0.109941
H	-2.145213455	-1.3221508434	-0.3121570331	 0.12351
H	 0.2401224793	-3.0786358972	-1.3039943916	 0.09864
