18
gdb 11352	4.16541	1.30969	1.06172	2.3334	71.21	-0.2254	0.0249	0.2502	1125.4004	0.152739	-384.94041	-384.931827	-384.930883	-384.973842	30.692	
C	 0.0920726951	 1.553476831	-0.1020220273	-0.385469
C	-0.0458671275	 0.0405661611	 0.0683144634	 0.10362
O	 0.5495054045	-0.6292129975	-1.0532276946	-0.28026
C	 1.4817906752	-1.6048169902	-0.6103484248	-0.158026
C	 1.5382416405	-1.4547472469	 0.8890573271	 0.28702
C	 2.4524608435	-2.2714036097	 1.7383819645	-0.180631
O	 2.265203421	-1.931706817	 3.0996483591	-0.412162
C	 0.6643077103	-0.5282193949	 1.2666061313	-0.200887
H	 1.1468159574	 1.8435498212	-0.1092772915	 0.116999
H	-0.3637121754	 1.8688104781	-1.0449726926	 0.123118
H	-0.410992291	 2.0794979239	 0.7163118102	 0.110274
H	-1.1207326172	-0.2103372484	 0.0961420434	 0.077714
H	 1.1522140376	-2.6146799695	-0.9104548332	 0.096662
H	 2.4581919358	-1.4331684266	-1.0917857594	 0.099724
H	 2.2534570357	-3.3433730532	 1.558911658	 0.098048
H	 3.4958586495	-2.0975197041	 1.4191839538	 0.098615
H	 2.8683369232	-2.4636248963	 3.6262465503	 0.290916
H	 0.4711631717	-0.2141031009	 2.2829949725	 0.114725
