20
gdb 107149	4.41331	0.99938	0.94909	2.9751	79.95	-0.238	0.0752	0.3132	1328.5006	0.170138	-403.085195	-403.07649	-403.075546	-403.118707	33.296	
C	 0.0208171997	 1.5000447834	-0.3116609489	-0.379913
C	 0.0275841496	 0.0196695285	 0.09503866	-0.301024
C	-1.3520296448	-0.5301737067	 0.2793939121	 0.442552
C	-2.3714063306	-0.2157135274	 1.4020577075	-0.399582
C	-2.9143370229	-1.6549661645	 1.2002122312	 0.367323
C	-3.3244853563	-2.5933920529	 2.2658432846	-0.313648
N	-4.2808452883	-2.1523254348	 1.2261351492	-0.360507
C	-1.926036955	-1.8757374982	 0.074187192	-0.133102
O	-2.1378764593	-0.8234352998	-0.8851674063	-0.291452
H	 1.040391291	 1.8712845243	-0.4494876166	 0.114907
H	-0.5235815436	 1.6394225461	-1.2501955392	 0.136402
H	-0.4606438524	 2.1199570441	 0.4519957185	 0.118699
H	 0.5364188209	-0.5763052545	-0.6705021775	 0.112767
H	 0.588711781	-0.1095392331	 1.0291040238	 0.102266
H	-1.9231921095	-0.0580360887	 2.3869974337	 0.108085
H	-3.0587826488	 0.6014972059	 1.1677253541	 0.110992
H	-3.0521579442	-3.6445776066	 2.2132071088	 0.120064
H	-3.4223133311	-2.2022881549	 3.2759411526	 0.111422
H	-4.9063347505	-1.4424778109	 1.5997641721	 0.233135
H	-1.4852637247	-2.7982147994	-0.2869160619	 0.100614
