15
gdb 44723	2.61873	1.71944	1.20503	6.0868	69.68	-0.2603	-0.0279	0.2324	1000.1291	0.113372	-416.802587	-416.79514	-416.794195	-416.834962	27.726	
O	-0.2241510853	 0.0356209229	 0.3369427592	-0.291754
C	-0.1774847878	 1.1967098986	 0.0758340974	 0.398732
C	-1.1986639887	 2.3220335904	-0.2124298555	-0.381331
C	 0.005338239	 3.2750952712	-0.0579980218	 0.027328
C	 0.4518149565	 3.7139586282	 1.3625240872	-0.274093
C	 1.5415041118	 2.5884520232	 1.2931032931	-0.124926
C	 1.618955983	 1.6502154068	 2.4043786807	 0.301039
N	 1.6853856727	 0.9524625025	 3.3230515211	-0.310136
N	 0.9432173694	 2.0923883177	 0.0028074677	-0.157886
H	-1.648550105	 2.2958014722	-1.2078437447	 0.146566
H	-1.990614351	 2.3931229429	 0.536418598	 0.147617
H	 0.1854158138	 3.9897859509	-0.8618042905	 0.100637
H	 0.8434911856	 4.7270474082	 1.4574970284	 0.132437
H	-0.2956097467	 3.5418913428	 2.1396133065	 0.13984
H	 2.5437784427	 2.9823773714	 1.1023016532	 0.145931
