19
gdb 109824	3.59645	0.87969	0.81076	2.6633	78.51	-0.2356	0.0564	0.2919	1469.3565	0.156189	-422.951843	-422.941807	-422.940863	-422.98772	36.171	
C	 0.0285756184	 1.1784004644	-0.5862318464	-0.245269
O	-0.0686138262	 0.0255135497	 0.2388680105	-0.252763
C	-1.3317047211	-0.576053974	 0.1767734101	 0.029911
C	-1.4271665068	-1.7882432772	-0.722915197	 0.090464
O	-0.2819723997	-2.1410621799	-1.4355953009	-0.427188
C	-1.4515230639	-1.948936941	 0.7905722325	-0.118032
C	-0.2776790307	-2.5856343841	 1.5245859778	-0.358071
C	-0.5723666459	-3.9495580868	 1.9513776271	 0.302931
C	-0.8342254069	-5.0674477168	 2.3064845635	-0.449748
H	 1.0464069089	 1.5604135032	-0.4821802554	 0.134908
H	-0.1673521909	 0.9423383713	-1.640863948	 0.123338
H	-0.6801648701	 1.9537938262	-0.2633644679	 0.119565
H	-2.1643170291	 0.1209006621	 0.2693713941	 0.090377
H	-2.3331240364	-1.9853612264	-1.2871109939	 0.102645
H	 0.4028587395	-1.5062814874	-1.1846599836	 0.293566
H	-2.4209031732	-2.1662247458	 1.2286476157	 0.102887
H	 0.6005261369	-2.5941893531	 0.8710909285	 0.133623
H	-0.0077306995	-1.9782145963	 2.397215107	 0.134677
H	-1.0521550432	-6.058438378	 2.6177776765	 0.192178
