21
gdb 113973	3.36672	0.74516	0.6579	1.1328	86.28	-0.2486	0.0339	0.2825	1762.4876	0.179361	-387.029435	-387.019104	-387.01816	-387.065771	37.283	
C	 0.380583748	 1.3701620682	 0.3311057268	-0.37294
C	-0.2747592438	 0.1008046482	-0.223533601	-0.188318
C	 0.502630473	-0.5021338715	-1.3763956505	-0.027499
C	 1.7017594992	-1.3968849301	-1.110377081	-0.325693
C	 0.4250294144	-1.9649192365	-1.6869645637	 0.119249
O	-0.402259614	-2.7428759688	-0.8762898647	-0.247639
C	 0.0394143352	-4.08910626	-0.7837551145	-0.203881
C	-0.8545693357	-4.844542739	 0.0831967591	 0.280601
C	-1.5747552718	-5.490155273	 0.7947565229	-0.419434
H	 1.389100696	 1.1626364421	 0.7041617051	 0.115421
H	 0.4671218965	 2.1434299855	-0.4405338326	 0.110574
H	-0.2045584861	 1.7882036729	 1.1561822124	 0.110765
H	-0.3805425838	-0.6476885108	 0.567477274	 0.111985
H	-1.2939741805	 0.3299069414	-0.5599641052	 0.09932
H	 0.5852293606	 0.1447531769	-2.2471365894	 0.083743
H	 2.5809201983	-1.3206584749	-1.7409157975	 0.109733
H	 1.9067816718	-1.6321772696	-0.0704491651	 0.117911
H	 0.4314670144	-2.2724880359	-2.7342605768	 0.083595
H	 0.0652690051	-4.5518370966	-1.7844202074	 0.119189
H	 1.0674673544	-4.1278422779	-0.3903889842	 0.123006
H	-2.2162470713	-6.0559805003	 1.4241587032	 0.200312
