19
gdb 40044	3.60691	1.36854	1.16504	1.8012	80.22	-0.2368	0.0206	0.2574	1090.906	0.160504	-385.869262	-385.861889	-385.860945	-385.901353	29.505	
C	 0.7414835315	 1.45210349	-0.0779493775	-0.262847
O	 1.4633849761	 0.2286969461	 0.1327420471	-0.271837
C	 0.0539935667	 0.1636803998	-0.0093460846	 0.449743
C	-0.845976835	-0.4440501457	 1.0728482243	-0.328136
C	-1.4499530043	-1.4100320347	 0.0044195434	-0.009605
C	-2.9412712476	-1.2247165849	-0.3466018972	-0.275117
C	-2.914292945	-0.2337764192	-1.4882175453	-0.059115
C	-1.6796669731	 0.0452226592	-1.9084332203	-0.079477
C	-0.623694801	-0.6722466006	-1.1126083899	-0.159096
H	 0.7122944316	 2.1288959839	 0.7756653717	 0.111563
H	 0.9076019485	 1.9316711207	-1.0422845998	 0.110689
H	-0.2896752802	-0.9248143378	 1.8810395613	 0.115778
H	-1.5696644071	 0.252491792	 1.5071702671	 0.104207
H	-1.1786613021	-2.4524317105	 0.1729960521	 0.075344
H	-3.4178335248	-2.1659571941	-0.6519279272	 0.105487
H	-3.5207283102	-0.8563647012	 0.5106780231	 0.103755
H	-3.8216506873	 0.1822740222	-1.9139120372	 0.092465
H	-1.4371464556	 0.7232891207	-2.7198731313	 0.092919
H	 0.0790620089	-1.2524811756	-1.71869331	 0.083282
