21
gdb 68313	2.93651	1.20655	1.01374	0.5445	88.69	-0.2571	0.0582	0.3153	1256.6641	0.1816	-349.877597	-349.868656	-349.867712	-349.911317	34.921	
C	 0.047790268	 1.3558344204	 0.116992198	-0.511695
C	 0.0518053541	-0.1487421785	 0.0606045534	 0.340868
C	 0.6483300862	-1.0541448843	-1.0642828316	-0.257565
C	 0.060293846	-2.0390599156	-0.0158059635	-0.073697
C	 0.7172608309	-1.1403618032	 1.0697565761	-0.266779
C	-1.1905713347	-1.1093293911	 0.0220571444	 0.030898
C	-2.1989279733	-1.1810449445	 1.1766687051	-0.414822
C	-3.1119660326	-0.041969264	 1.1870456514	 0.315359
C	-3.853640711	 0.9043417795	 1.1719230711	-0.461351
H	 1.0704551056	 1.7491976971	 0.1303514621	 0.113129
H	-0.4655631658	 1.7791341271	-0.7531204431	 0.119761
H	-0.4677093136	 1.7169953541	 1.0125942659	 0.127619
H	 0.1535603805	-1.0159021879	-2.0395064977	 0.086363
H	 1.7372590625	-1.0458748584	-1.1657069021	 0.086186
H	 0.0667245104	-3.1290280693	-0.0629700047	 0.067466
H	 1.8110414281	-1.1353472919	 1.0924117574	 0.087692
H	 0.3176323613	-1.1810069542	 2.0848925012	 0.088719
H	-1.7413330992	-1.065818862	-0.9244607581	 0.069281
H	-2.7814181753	-2.1068697593	 1.0754773704	 0.129637
H	-1.6964784765	-1.2490644941	 2.1473222585	 0.129238
H	-4.5138414916	 1.73569272	 1.168560426	 0.193691
