15
gdb 19887	4.11524	1.96676	1.62387	1.4459	70.85	-0.2213	0.0228	0.2441	805.8539	0.118311	-325.387942	-325.381311	-325.380367	-325.418391	26.597	
C	-0.3781136523	-1.2917114172	-0.2841280212	-0.422582
C	-0.11716172	-0.1395803072	-0.0530079269	 0.312487
C	 0.0430057406	 1.2787028306	 0.111143728	-0.18228
C	 0.5320269516	 2.0832452054	 1.267630655	-0.05321
C	 1.7565067635	 1.5862378697	 2.0522297158	-0.080125
C	 2.309168826	 0.2878252035	 1.5325739304	-0.30845
C	 2.4762336265	 1.5413468518	 0.7228900347	 0.003233
N	 1.2822027534	 2.1043251002	-0.0329804459	-0.171584
H	-0.5761111132	-2.319836666	-0.4621597491	 0.199555
H	-0.7462733007	 1.8095543495	-0.4227020054	 0.130662
H	-0.0289137993	 2.9563009557	 1.5904264448	 0.102445
H	 2.0618483048	 2.035803492	 2.9869637758	 0.098614
H	 3.2336673296	-0.0049331405	 2.0235198885	 0.115702
H	 1.6832615628	-0.5402425558	 1.237332398	 0.147671
H	 3.4401079266	 1.9318821483	 0.4247203473	 0.107862
