18
gdb 30656	4.04258	0.926	0.91677	1.7867	73.95	-0.2452	-0.0029	0.2423	1356.1137	0.14773	-439.117229	-439.108341	-439.107397	-439.151571	32.037	
C	 0.0646394369	 1.5281268488	-0.1914201561	-0.386201
C	 0.0194821912	 0.0037644787	-0.0734570514	-0.189364
C	-1.4146121602	-0.537444423	 0.0718030321	-0.00949
O	-2.2472201259	-0.1281553242	-1.0129030674	-0.425721
C	-1.4441845302	-2.020065921	 0.2494659732	 0.359484
C	-1.8518480065	-2.8778739827	 1.2151917063	-0.207512
N	-1.6300881528	-4.188828953	 0.8038453776	-0.255542
C	-1.1140040616	-4.0631931023	-0.3720282627	 0.072472
O	-0.9602014953	-2.7832426591	-0.7889861825	-0.196327
H	 1.0898342504	 1.8796271877	-0.3393812302	 0.112714
H	-0.5434827363	 1.8676435888	-1.033372209	 0.131413
H	-0.3251177475	 2.0056188781	 0.7144989144	 0.115567
H	 0.4774770667	-0.4614344382	-0.9561212144	 0.10174
H	 0.6053467414	-0.3335281598	 0.790108945	 0.104942
H	-1.8743198472	-0.0963626742	 0.9635588951	 0.105212
H	-1.9376056637	-0.5871244321	-1.802159676	 0.286742
H	-2.2890852194	-2.6511488521	 2.1745126187	 0.128497
H	-0.7966925201	-4.8361928403	-1.0542218628	 0.151373
