17
gdb 44844	3.44316	1.65948	1.52255	2.6451	71.71	-0.2493	0.029	0.2783	907.5913	0.140534	-417.997149	-417.990978	-417.990034	-418.027475	26.254	
N	-0.0715113998	 1.251988925	-0.0045325822	-0.564792
C	-0.0421203991	-0.008352341	-0.0027769992	 0.441282
O	 1.0981563668	-0.7856160536	 0.0051795307	-0.265944
C	 0.6418430957	-2.1752749649	 0.0275754841	 0.082483
C	-0.6172119664	-2.1028134362	-0.846438613	-0.250056
C	-1.224855931	-0.9658618044	 0.0089126029	-0.125183
C	-1.1604447201	-1.5635547205	 1.4293148704	-0.029727
N	-1.2325423621	-3.0390184761	 1.4915800824	-0.349837
C	 0.0858029661	-2.3696180001	 1.4416982341	-0.046101
H	 0.8772941337	 1.6324710263	 0.0020152411	 0.220833
H	 1.4691742754	-2.8053763651	-0.2930082203	 0.088057
H	-0.3832241331	-1.7875071234	-1.8645932909	 0.113081
H	-1.2066849826	-3.0161576369	-0.8452288483	 0.140007
H	-2.164554664	-0.5170507896	-0.3025784301	 0.095019
H	-1.475772825	-0.9671852739	 2.277091062	 0.109444
H	-1.4217583249	-3.3129902472	 2.4528941822	 0.238376
H	 0.7575085604	-2.4038945486	 2.2910402742	 0.103059
