21
gdb 53492	5.46725	0.53714	0.50312	0.044	98.42	-0.2366	0.0511	0.2877	2238.994	0.178683	-349.919397	-349.907479	-349.906535	-349.959491	39.785	
C	 0.0666417905	 1.4950258364	 0.0222651588	-0.498046
C	 0.0420824983	 0.0390991744	-0.0044630511	 0.0914
C	 0.0360780474	-1.165320683	-0.0269853123	 0.038835
C	 0.0021319506	-2.6232346064	-0.0424951231	-0.347668
C	-1.4430373363	-3.2068291527	-0.0328518313	-0.154225
C	-2.2353184514	-2.7858712992	-1.2841072303	-0.381091
C	-1.3937473834	-4.661794734	 0.1061280913	 0.060733
C	-1.3324906052	-5.8609070619	 0.2035870416	 0.073429
C	-1.2710489314	-7.3105360131	 0.3301159139	-0.497855
H	 0.8674952077	 1.8679542472	 0.6705164574	 0.147005
H	 0.230284551	 1.9113216328	-0.9780148025	 0.146113
H	-0.8781587366	 1.9027181042	 0.3988335091	 0.14628
H	 0.5250520017	-3.005902287	-0.9282978138	 0.129475
H	 0.5426051185	-3.018273025	 0.8253745653	 0.131935
H	-1.9497487132	-2.7888439104	 0.8471269624	 0.108731
H	-1.7673031213	-3.1880408985	-2.1883308624	 0.119222
H	-3.2599192096	-3.1634960157	-1.2375297517	 0.120239
H	-2.2633047553	-1.6958734697	-1.3624992616	 0.126508
H	-2.2462963682	-7.7278584608	 0.6047551558	 0.146879
H	-0.9640029892	-7.7811916101	-0.6105453621	 0.145983
H	-0.5536578346	-7.6141239475	 1.1007198066	 0.146118
