23
gdb 100689	2.44018	1.08002	0.91855	1.3778	78.07	-0.2508	0.065	0.3157	1403.7578	0.202118	-462.550082	-462.538738	-462.537794	-462.586172	41.702	
C	-0.0925303276	 1.3683097106	-0.1143993786	-0.24401
O	-0.0297283423	-0.0281563514	 0.0669556335	-0.290535
C	 0.6827397719	-0.5140708571	 1.2146682965	 0.357745
C	 2.171188113	-0.1419360098	 1.1509993823	-0.432944
C	 0.056977565	-0.0234488799	 2.5291159426	-0.435592
C	 0.5487788663	-2.047277503	 1.0623416775	 0.102053
O	 1.2355821071	-2.6755916883	 2.1300705616	-0.450058
C	-0.8934251994	-2.5613625744	 1.0147289126	-0.112326
O	-0.889010061	-3.9923794164	 1.0224590218	-0.426631
H	 0.8984244459	 1.8213475425	-0.2551165053	 0.108229
H	-0.6784182779	 1.5366246907	-1.0219106038	 0.124722
H	-0.592520348	 1.8804590537	 0.7192872295	 0.107369
H	 2.3292783708	 0.9275777208	 1.3159885922	 0.107821
H	 2.7186565595	-0.689309524	 1.9212768008	 0.143939
H	 2.5864767827	-0.4089330085	 0.1742205391	 0.114014
H	-1.0338259428	-0.0963192548	 2.4983422854	 0.11737
H	 0.424918557	-0.6375820679	 3.3539759765	 0.140353
H	 0.3216520384	 1.0174281812	 2.7347697531	 0.10971
H	 1.0243854759	-2.3069555382	 0.0984942567	 0.054027
H	 0.8714238621	-3.5705100482	 2.1708334421	 0.287742
H	-1.4331551769	-2.2731413202	 1.9207113526	 0.114485
H	-1.421645066	-2.1554748222	 0.1466836773	 0.114824
H	-0.5848500036	-4.2891926053	 0.1578143641	 0.287691
