27
gdb 121842	3.72513	0.69099	0.68062	0.9224	93.74	-0.2494	0.0778	0.3272	1887.1217	0.248688	-390.701654	-390.689473	-390.688529	-390.739335	44.027	
C	 0.0147187856	 1.4865319278	 0.0102347629	-0.386183
C	-0.0015305776	-0.0327695609	 0.0020338433	-0.025254
O	-1.34307228	-0.470963303	 0.0123387531	-0.251837
C	-1.4775785076	-1.8763180466	 0.0060100638	-0.059959
C	-2.9663124194	-2.266900386	 0.0181576725	 0.243761
C	-3.6223685964	-1.6954324695	 1.2889373419	-0.409481
C	-3.646485748	-1.682008669	-1.2336952199	-0.409484
C	-3.0188058293	-3.8146752643	 0.0104262758	-0.184515
C	-4.4154812278	-4.4460753032	 0.0205360434	-0.401853
H	 1.0439995276	 1.8575846291	 0.0025011968	 0.113509
H	-0.5032410154	 1.8806909043	-0.868819037	 0.1257
H	-0.4864169566	 1.8709476312	 0.9032446698	 0.125699
H	 0.5184411315	-0.4205196194	-0.8909516345	 0.083641
H	 0.5352310396	-0.4302663042	 0.8806832804	 0.083641
H	-0.9872349093	-2.2981049622	-0.8890729661	 0.076774
H	-0.9702292861	-2.3077114877	 0.8869237294	 0.076771
H	-3.4650032481	-0.6157269896	 1.3433560563	 0.127887
H	-4.6999164398	-1.8830480486	 1.3033092191	 0.10781
H	-3.1907536222	-2.1445008641	 2.1912448005	 0.100976
H	-3.2322182911	-2.121378188	-2.148817703	 0.100979
H	-4.7241244618	-1.8696049455	-1.2294777595	 0.107811
H	-3.4901150366	-0.6017644952	-1.2796041439	 0.127886
H	-2.4764009978	-4.1758927051	-0.8740092602	 0.088805
H	-2.4594933332	-4.1852271276	 0.8803514556	 0.088805
H	-4.337664616	-5.5378912887	 0.0139427959	 0.111365
H	-4.9845744539	-4.1644966489	 0.9116424633	 0.118375
H	-5.0016514904	-4.1550387148	-0.8563482199	 0.118373
