23
gdb 88666	4.19567	0.79322	0.73412	1.8388	87.29	-0.2544	0.0827	0.3372	1653.946	0.204589	-388.270799	-388.261019	-388.260074	-388.306178	36.476	
C	 0.119067084	 1.5429201352	-0.4210077256	-0.421749
C	-0.0161029465	 0.0840253278	-0.0651422633	 0.076866
O	 1.1791708442	-0.7031825226	-0.0296790695	-0.269081
C	 0.4483432444	-0.5289075793	 1.1932224941	 0.043549
C	 1.1236210718	 0.2015213369	 2.3172161978	 0.018555
C	 0.2627729812	 0.5926616055	 3.5532854781	-0.256926
C	 1.460182285	 0.2082917698	 4.467766649	 0.060153
C	 1.1878611797	-0.4913497421	 5.789787064	-0.407989
C	 2.0388917658	-0.6108074402	 3.2797517367	-0.249322
H	 0.94949492	 2.0164841125	 0.1058011544	 0.128424
H	 0.2953231313	 1.6530016099	-1.496276906	 0.128643
H	-0.8034407374	 2.0812488389	-0.1772612066	 0.120569
H	-0.847337587	-0.4187408981	-0.5659478504	 0.083046
H	-0.0766924348	-1.4337909287	 1.5141882147	 0.077221
H	 1.6641784303	 1.0689233977	 1.9314555627	 0.072422
H	-0.1254874408	 1.6131017973	 3.6039830556	 0.095721
H	-0.5735463624	-0.1036873965	 3.6879930997	 0.094587
H	 2.0847128838	 1.0929382493	 4.6389306477	 0.071167
H	 0.5626735566	-1.3796765814	 5.6428576107	 0.109555
H	 2.118888843	-0.8156096606	 6.2683956258	 0.114672
H	 0.6668523903	 0.1699274198	 6.4915573834	 0.1132
H	 1.7227225388	-1.6593203009	 3.3321661153	 0.095824
H	 3.1166003984	-0.5817419601	 3.1037986418	 0.100892
