16
gdb 32313	2.66573	1.47296	0.95431	2.2831	75.8	-0.2103	-0.0298	0.1805	1164.3308	0.126221	-437.95405	-437.946061	-437.945117	-437.986855	29.87	
O	 0.0147007672	 1.440244905	 0.0070932107	-0.426387
C	-0.0012481906	 0.0238939762	 0.0020268001	-0.149691
C	-1.4215530943	-0.4619816921	 0.0123640498	 0.090241
C	-2.5057094471	 0.3647317284	 0.0235645493	-0.143117
C	-3.834485985	-0.1489433936	 0.0329967199	-0.16846
C	-4.0069422741	-1.4965428373	 0.0306104848	 0.02748
N	-2.9224471677	-2.3232458585	 0.019427431	-0.362052
C	-1.5838739989	-1.9068359638	 0.0096482561	 0.387272
O	-0.6765293729	-2.7294484064	-0.0002872593	-0.405126
H	 0.9320098274	 1.725636927	 0.0003226642	 0.292533
H	 0.5085310285	-0.3898972758	-0.88287015	 0.114552
H	 0.5235345026	-0.3964654188	 0.8749502661	 0.114587
H	-2.3396883567	 1.4360676626	 0.025260516	 0.129269
H	-4.69111369	 0.5110226694	 0.0418511553	 0.106209
H	-4.9756491547	-1.9808843268	 0.037155792	 0.132383
H	-3.0424476436	-3.3267773554	 0.017565654	 0.260306
