17
gdb 14673	4.73151	0.75903	0.70392	3.8787	75.89	-0.2595	0.02	0.2794	1626.7115	0.140241	-363.83139	-363.821809	-363.820865	-363.868821	31.736	
C	 0.0940924239	 0.8439796251	 0.3699611381	-0.366454
C	-0.5816263537	 0.002248928	-0.7278109839	-0.315371
C	-1.960773203	-0.3532744815	-0.4128627747	 0.059948
C	-3.0976275496	-0.6313545713	-0.1276276062	 0.075863
C	-4.4694888234	-0.9908660936	 0.2123607554	-0.237956
O	-4.5735032066	-2.210827274	 0.9585452724	-0.171321
C	-4.3215800821	-3.3442864079	 0.2700499219	 0.137135
N	-4.3684566246	-4.4584907668	 0.8594139967	-0.437858
H	 1.123723549	 1.080909299	 0.0867050421	 0.117775
H	-0.4449070079	 1.7819465849	 0.5276537607	 0.129864
H	 0.1125249991	 0.3013018518	 1.3186257498	 0.134711
H	-0.5591001688	 0.5480036046	-1.6797512734	 0.13342
H	-0.0054744047	-0.9166593272	-0.8953826871	 0.135991
H	-4.920257088	-0.232831193	 0.8588735976	 0.151628
H	-5.0864067572	-1.0549570296	-0.6950466649	 0.132904
H	-4.0933659639	-3.1737240571	-0.7905345438	 0.091143
H	-4.1695259384	-5.2076264212	 0.1995635492	 0.228578
