16
gdb 28441	3.16545	1.38094	0.96723	0.6705	76.42	-0.2109	-0.0122	0.1987	1169.5533	0.125111	-437.967923	-437.959813	-437.958869	-438.000519	30.993	
C	-0.0172415524	 1.4870960586	 0.0861185658	-0.467439
C	 0.0075362627	-0.0144937479	-0.0143324693	 0.304569
C	-0.1359870721	-0.6849888971	-1.2225627829	-0.168068
C	-0.1042038562	-2.0828593492	-1.2494480052	-0.165018
C	 0.0705256646	-2.7738398117	-0.0656751642	 0.276767
O	 0.1096274507	-4.1316848227	-0.0300005119	-0.444571
C	 0.2063293997	-2.0042569821	 1.103154018	 0.309327
O	 0.3779205521	-2.6968354789	 2.2627496263	-0.447245
N	 0.1780314763	-0.6918708948	 1.1401077533	-0.402914
H	 0.9180100066	 1.8626024701	 0.5148891575	 0.134067
H	-0.1588117775	 1.9501191815	-0.8933420562	 0.118331
H	-0.8261676476	 1.8183438529	 0.7460255615	 0.134069
H	-0.2721987427	-0.1271525316	-2.1418130896	 0.093615
H	-0.2132458566	-2.6358451308	-2.1757292276	 0.113213
H	 0.2384700748	-4.3954572139	 0.8895803195	 0.310078
H	 0.4546159776	-2.0378817823	 2.9655276647	 0.301218
