14
gdb 128962	4.01322	1.68877	1.1886	4.0898	82.87	-0.2034	-0.0489	0.1545	949.3204	0.104791	-395.736155	-395.730125	-395.729181	-395.766353	24.69	
N	 0.0395118101	 1.340997081	 0.0095419048	-0.221444
C	 1.146243759	 2.11192968	 0.0026161151	-0.074611
C	 2.3532299495	 1.4708751205	-0.0128011232	 0.232815
C	 3.7154638189	 1.8194526229	-0.0244607902	-0.293488
C	 4.4354132619	 0.6215223291	-0.0380687817	-0.075926
C	 3.5670459127	-0.4987016281	-0.0354478524	-0.249512
C	 2.2711437664	-0.0040751571	-0.0198197193	 0.326906
N	 1.0958646887	-0.6716476199	-0.0116703064	-0.269376
N	-0.0178089495	-0.0340790475	 0.0028043569	-0.108759
H	-0.8818539361	 1.7498811895	 0.0209028457	 0.283579
H	 0.9912756498	 3.1860226142	 0.0098903781	 0.147906
H	 4.1258896458	 2.8188125565	-0.0231833211	 0.095993
H	 5.5164291514	 0.5564661239	-0.0491892593	 0.100663
H	 3.8532737613	-1.5396490552	-0.0439041971	 0.105253
