19
gdb 108250	2.63454	1.32395	1.29995	1.9115	70.84	-0.2487	0.0464	0.2952	1103.9848	0.157796	-460.119702	-460.110803	-460.109858	-460.153391	33.183	
C	-0.3032428412	 1.4672939605	-0.0754971262	-0.482242
C	 0.0283812977	 0.0041769332	 0.029852801	 0.322928
C	 1.2011283044	-0.6059097636	-0.7621505544	-0.118423
O	 1.6258969387	-1.382118859	 0.389749304	-0.348862
C	 0.6001691619	-0.7984448561	 1.2318396183	 0.328631
C	 1.1855873914	-0.3218953817	 2.5360309242	-0.158164
O	 1.8064892871	-1.4025103618	 3.2116998949	-0.416678
C	-0.7071276036	-1.599579601	 1.1590668601	-0.119932
O	-1.1367880374	-0.8504423243	-0.0092378147	-0.335194
H	 0.5941614308	 2.084682541	 0.0278543049	 0.12423
H	-0.7504579597	 1.6766923496	-1.0538330154	 0.136916
H	-1.0253655781	 1.7596302984	 0.6917031609	 0.130708
H	 0.9087911433	-1.2352940229	-1.6087516099	 0.114634
H	 1.9797303033	 0.1033845671	-1.0705176777	 0.101839
H	 1.8972825369	 0.4964598647	 2.3430062194	 0.090016
H	 0.402376827	 0.0612595076	 3.1981318662	 0.112111
H	 2.4286388331	-1.7889243828	 2.5830458556	 0.297987
H	-0.5874180021	-2.6683902287	 0.9577470097	 0.114926
H	-1.3946950336	-1.44954895	 2.000898589	 0.104568
