18
gdb 62475	2.36254	1.56086	1.28865	3.0105	72.17	-0.243	0.0081	0.2511	1066.2152	0.146465	-439.092687	-439.083789	-439.082845	-439.125857	33.671	
C	-0.1604870639	 1.4910572928	 0.0113949758	-0.433473
C	-0.072037979	-0.0306130011	 0.0082644568	-0.030747
N	-1.3708297508	-0.6130734475	-0.2662306545	-0.549005
C	 1.1599161542	-0.5611306566	-0.7754976175	 0.429723
O	 1.5377550453	-0.6233759259	-1.9014871929	-0.337201
O	 1.7895128968	-1.041466639	 0.3518882628	-0.284962
C	 0.66986301	-0.6629441324	 1.1919719958	 0.473582
C	 0.8560889036	-0.2396124031	 2.6013722198	-0.341341
C	 0.1671058076	-1.5599572929	 2.2641210493	-0.337332
H	 0.7936719932	 1.9423581604	 0.2940997425	 0.135151
H	-0.425391891	 1.8565339433	-0.9861186374	 0.132468
H	-0.9315349522	 1.8167098496	 0.7156387632	 0.132331
H	-1.7452031617	-0.2395833061	-1.1336671514	 0.240927
H	-1.2990504728	-1.6194975961	-0.3832852063	 0.240063
H	 1.859977078	-0.292622755	 3.008056453	 0.134861
H	 0.2534826265	 0.5802797146	 2.9781871028	 0.126875
H	-0.9078174637	-1.6297430556	 2.3941463642	 0.135213
H	 0.7200464398	-2.4728733893	 2.4559031242	 0.132866
