19
gdb 39953	3.93142	1.23266	1.10519	1.1629	85.44	-0.196	0.0157	0.2117	1164.9427	0.158588	-385.86431	-385.85646	-385.855516	-385.896672	31.741	
C	-0.21428786	 1.4242740075	 0.1849957941	-0.325504
C	 1.2178209762	 1.0131895933	-0.1009182087	-0.325504
C	 0.125795363	-0.0241426754	-0.0541014129	 0.4126
O	 0.0973588165	-0.8983428339	 1.0606564785	-0.339755
C	-0.3537586157	-2.1703186716	 0.6290448971	 0.4126
C	 0.2351248429	-3.3848582197	 1.299025472	-0.325501
C	-1.1970336945	-2.9739644765	 1.5849645216	-0.325508
C	-0.6105380671	-2.0545285624	-0.823751841	-0.17733
C	-0.3332305135	-0.8131809011	-1.2188651886	-0.177331
H	-0.4603860201	 1.6946221048	 1.2057803586	 0.125328
H	-0.7689110414	 1.9614152691	-0.5772583564	 0.112468
H	 1.6551734854	 1.2655933292	-1.0612172919	 0.112468
H	 1.9117877627	 1.0136916701	 0.7321859869	 0.125328
H	 0.417957913	-4.2717206802	 0.701358249	 0.112466
H	 0.9716245991	-3.1938997996	 2.0715252145	 0.125326
H	-1.40063207	-2.5132895473	 2.5451622387	 0.125329
H	-2.0062099693	-3.5762243175	 1.1853695103	 0.112469
H	-0.9673618365	-2.8764580585	-1.4297204217	 0.110026
H	-0.4149749006	-0.4037791002	-2.2167615201	 0.110026
