20
gdb 89635	4.75607	1.00648	0.95041	1.613	79.8	-0.223	0.077	0.3001	1305.7315	0.171058	-403.083546	-403.075064	-403.074119	-403.116712	32.475	
C	-0.079292793	 1.5815838017	 0.2271054658	-0.403685
C	 0.0052889586	 0.0645298951	 0.1444637274	 0.039073
C	 0.8092248711	-0.5830415151	-1.0475054352	-0.315706
C	 1.7072823607	-1.2811244412	-0.0162832281	 0.378059
N	 2.3357478148	-0.2079713083	 0.7834758335	-0.38445
C	 0.9573889992	-0.659530679	 1.1118099018	-0.122349
C	 2.3373290253	-2.6184287492	-0.1291276818	-0.081404
C	 3.7854177629	-2.7854777894	-0.3319668459	-0.180056
O	 3.1915968019	-3.000432769	 0.954158638	-0.238076
H	 0.9229410023	 2.0180434554	 0.2250188412	 0.138378
H	-0.6372405112	 1.9917711747	-0.6217726943	 0.108851
H	-0.5888296334	 1.8983726827	 1.1441112558	 0.109286
H	-0.992942902	-0.3811032849	 0.1981857477	 0.072544
H	 0.201951934	-1.273795896	-1.6378437276	 0.100085
H	 1.3304339465	 0.1086135523	-1.7146774035	 0.10392
H	 2.9493453588	-0.6874851008	 1.4454643567	 0.238153
H	 0.7367176666	-1.0542172374	 2.0967825401	 0.094832
H	 1.6817353804	-3.4152595889	-0.4840891396	 0.096301
H	 4.1627723238	-3.6810390476	-0.8222852289	 0.120272
H	 4.4154122429	-1.9016899451	-0.4098500231	 0.12597
