19
gdb 26247	3.38277	1.07707	0.97908	1.6209	81.22	-0.1785	0.0401	0.2186	1299.8426	0.158808	-419.220299	-419.210801	-419.209857	-419.25494	34.76	
C	 0.1260415694	 0.8306434536	 1.0803033166	-0.329146
N	-0.1124659463	 0.1664062299	-0.1997804941	-0.173818
C	 1.0692475015	-0.5201579904	-0.7175807646	-0.329017
C	-1.2971706952	-0.5490215656	-0.2822113855	 0.361456
C	-2.4208181902	-0.4036703658	-1.024841984	-0.213035
C	-3.3136020661	-1.4759264843	-0.6821167701	-0.268646
C	-2.6609805686	-2.2061152975	 0.2673253978	 0.374894
N	-3.0254813884	-3.2983002201	 1.0460591879	-0.595318
O	-1.4460355679	-1.6831815155	 0.5349820344	-0.218036
H	 0.9434937989	 1.5513468876	 0.9676196703	 0.11299
H	-0.7747571265	 1.371768625	 1.3789870938	 0.127692
H	 0.3959493172	 0.130694032	 1.8882577543	 0.107449
H	 1.4195363335	-1.3350935201	-0.0621349195	 0.104641
H	 0.8409587691	-0.9404319435	-1.6998947246	 0.125557
H	 1.8873749611	 0.1998795002	-0.8293535704	 0.113896
H	-2.5893850594	 0.3827725656	-1.7437599335	 0.102398
H	-4.2956649906	-1.6701855837	-1.0822654618	 0.09104
H	-2.2385440117	-3.8946233721	 1.2703206998	 0.252411
H	-3.7716910097	-3.8379763454	 0.6292134332	 0.25259
