21
gdb 88544	3.22765	1.13396	1.10346	1.7706	83.03	-0.2351	0.0794	0.3145	1239.5893	0.182083	-387.043423	-387.034749	-387.033805	-387.077078	33.561	
C	-0.2272244584	 1.4997220585	 0.0195887869	-0.415844
C	-0.1046980783	-0.0040890911	 0.1325613571	 0.013838
C	 1.1616002373	-0.7182342797	-0.2645803607	-0.315567
C	 0.7448520327	-0.6845287957	 1.1902301279	-0.131654
C	 1.523082355	 0.0493295045	 2.2137526866	 0.452517
C	 2.5691968033	 1.1790847658	 2.07879653	-0.295325
C	 3.251441291	 0.6486015341	 3.3874154626	-0.247685
C	 2.1636176717	-0.4282741153	 3.4571543579	-0.04712
O	 0.9003744583	 0.2462549997	 3.5001267179	-0.299963
H	 0.7331000553	 2.0001937556	 0.1695609855	 0.122405
H	-0.5919785177	 1.7825695257	-0.974145516	 0.115257
H	-0.9290875289	 1.8986807783	 0.7597690653	 0.126219
H	-1.026412707	-0.5344153296	-0.0936069984	 0.086813
H	 1.1005317815	-1.6625883088	-0.7940902912	 0.111692
H	 2.0053537986	-0.1010277116	-0.5568454848	 0.111357
H	 0.3270231541	-1.6055021666	 1.5874509928	 0.087104
H	 3.2149474559	 1.079795118	 1.203619345	 0.106185
H	 2.1575747278	 2.1898625891	 2.1182650663	 0.109886
H	 4.2493916124	 0.2435734472	 3.2030341942	 0.104165
H	 3.2850668796	 1.3311518486	 4.2399331991	 0.109719
H	 2.2078675156	-1.4196438766	 3.8957837761	 0.096001
