19
gdb 96284	2.07024	1.70231	1.03066	4.2617	72.22	-0.2521	0.0132	0.2652	1175.3113	0.159401	-460.193737	-460.185119	-460.184175	-460.227344	32.192	
C	-0.2281024453	 1.4771270579	 0.1819026667	-0.400382
C	-0.016454462	-0.0188757282	-0.0076899637	 0.162007
C	 0.6989688654	-0.358413865	-1.3185358475	-0.257843
C	 0.4261223474	-1.8080817617	-1.750956316	-0.091088
O	 0.2134393363	-2.6666183801	-0.644768339	-0.225761
C	 1.2878633832	-2.7244923977	 0.2570673413	-0.222145
C	 1.4147690206	-1.5954912111	 1.2922053648	 0.370801
O	 2.1164590605	-1.7621461155	 2.2543730711	-0.318766
O	 0.759075654	-0.4275096316	 1.1489736651	-0.239046
H	 0.722715363	 2.014321294	 0.112284996	 0.129464
H	-0.9048664934	 1.8620859153	-0.5867084523	 0.117595
H	-0.6638284271	 1.677809947	 1.1635072474	 0.136014
H	-0.9790771752	-0.5396007113	 0.0356700493	 0.107052
H	 0.3642800457	 0.3210994508	-2.1095070847	 0.114784
H	 1.7702054286	-0.1699566794	-1.1826196002	 0.120843
H	-0.4995963576	-1.8643586765	-2.3310732373	 0.117364
H	 1.2436403577	-2.1873729427	-2.3834344643	 0.101647
H	 1.1717163485	-3.6396876662	 0.8425722867	 0.153166
H	 2.2568692098	-2.7957392283	-0.2624082835	 0.124295
