17
gdb 111728	3.31979	1.17358	1.00448	3.0412	74.22	-0.25	0.0072	0.2572	1178.7382	0.137561	-417.963551	-417.955407	-417.954463	-417.996583	30.598	
O	 0.2709048641	 0.7946311825	-0.8880785643	-0.419351
C	 0.0122728405	 0.0459891981	 0.2792793859	-0.095682
C	-1.3861634422	-0.5798989136	 0.2784809912	-0.088149
C	-2.0002064289	-1.1201794719	-0.9635606729	-0.065716
N	-0.9350813589	-1.669908903	-1.8270469602	-0.342814
C	-0.6563137296	-2.7387780418	-0.8083262352	-0.235863
C	-1.6412149977	-2.0895469525	 0.1803590868	 0.156647
C	-2.4592729885	-2.8009799283	 1.0996598134	 0.183927
N	-3.1245200269	-3.3885369016	 1.8440760561	-0.349696
H	 0.1769829	 0.1648405884	-1.6183058777	 0.293185
H	 0.7738722902	-0.7317760811	 0.4409795619	 0.093889
H	 0.0899561493	 0.7391794613	 1.1220207034	 0.118117
H	-2.1185293166	-0.1059486786	 0.9259199141	 0.121252
H	-2.9686639178	-0.8277863678	-1.349971912	 0.124265
H	-1.3111393738	-2.0719864178	-2.6781634292	 0.242039
H	-1.0081256789	-3.7227532951	-1.1263787649	 0.134423
H	 0.3921541857	-2.8067359072	-0.5038258164	 0.129526
