14
gdb 48013	4.13139	0.73141	0.65911	2.8122	75.63	-0.2733	-0.0702	0.2031	1609.6813	0.099534	-436.651273	-436.64262	-436.641675	-436.686708	29.173	
N	 0.3540698023	 1.2018157141	-0.0072871171	-0.529215
C	 0.1514212783	-0.0257253631	 0.0905234504	 0.448016
O	 0.9936667304	-1.0783530267	 0.3669521473	-0.24338
C	-0.0982481697	-2.0447939421	 0.3376968597	-0.089302
C	-1.0911871508	-0.9152141183	-0.054265181	-0.32771
C	-2.2189351071	-0.6488639913	 0.8059563532	 0.157155
C	-3.1565035013	-0.4471192005	 1.5395430338	 0.005186
C	-4.2757110557	-0.1641635246	 2.4034383018	 0.024106
O	-4.7676094147	-0.9644964024	 3.1648327236	-0.225135
H	 1.3331114577	 1.4424293588	 0.1539353119	 0.239902
H	 0.0746062602	-2.8156415285	-0.4153225069	 0.134688
H	-0.2634816287	-2.4849868921	 1.3222586609	 0.144526
H	-1.4134314018	-0.9756650438	-1.0986764425	 0.153091
H	-4.6633799791	 0.8704946904	 2.3164098247	 0.108072
