16
gdb 49769	2.26999	1.87911	1.17843	1.7726	69.11	-0.2396	-0.035	0.2046	1024.4423	0.123607	-437.88636	-437.87847	-437.877525	-437.919707	28.927	
O	-0.9091708586	 0.8921211291	-0.281896683	-0.245186
C	 0.2453667745	 0.7780417785	 0.0389089779	 0.150687
C	 1.2559490808	 1.924026375	 0.0046079368	-0.171043
N	 2.6208279656	 1.4037032191	 0.1826438843	-0.282451
C	 3.2687547697	 1.7853934084	-0.8401520921	 0.112181
O	 2.6616174558	 2.5280699642	-1.7870731307	-0.237942
C	 1.3180628915	 2.7270261798	-1.3098713181	 0.407335
C	 0.2554198314	 2.8806374755	-2.347544813	-0.332558
C	 0.7241355032	 4.0785007963	-1.5384277058	-0.321986
H	 0.6663503586	-0.180518769	 0.4099433271	 0.104968
H	 0.9956619223	 2.5773849126	 0.8498286397	 0.125899
H	 4.309695182	 1.5600476027	-1.043107636	 0.148231
H	 0.575379192	 2.8225700703	-3.3817618466	 0.129601
H	-0.7172797907	 2.4576337264	-2.1324397319	 0.157095
H	 0.0641280463	 4.4743035781	-0.7729943822	 0.126187
H	 1.3460729056	 4.8134740031	-2.0366528764	 0.128983
