13
gdb 133261	2.53373	1.82711	1.06867	0.9324	64.69	-0.2642	-0.078	0.1862	1012.6029	0.088782	-494.02724	-494.019789	-494.018845	-494.059423	26.987	
C	-0.0226862383	 1.4310284632	-0.0045568896	-0.318934
N	-0.0069873699	-0.0294573611	 0.0167295373	-0.077094
N	-0.04377608	-0.6275662573	-1.190698596	-0.060225
N	-0.0333605304	-1.9003625364	-1.2638415517	-0.207274
C	 0.0151133633	-2.6515751704	-0.1156128136	-0.067902
C	 0.053311549	-2.0981894355	 1.1186513117	 0.130135
F	 0.0997568708	-2.8258648991	 2.2168937059	-0.030754
C	 0.0442658283	-0.6579446057	 1.2779248382	 0.373972
O	 0.0744690448	-0.0223451129	 2.3116465817	-0.381768
H	 0.8759165811	 1.8161011972	 0.4825376033	 0.162771
H	-0.062927697	 1.7399373814	-1.0471426181	 0.161179
H	-0.8920982317	 1.7980102624	 0.5454209092	 0.162773
H	 0.02116477	-3.7265696257	-0.2543482483	 0.153121
