21
gdb 58049	2.10314	1.30657	1.00313	4.1912	83.42	-0.2561	0.0267	0.2829	1305.2281	0.18102	-383.25824	-383.24821	-383.247266	-383.29332	36.531	
C	-0.1497951747	 1.4888594915	 0.0040933069	-0.394081
C	 0.0638941155	-0.0280400865	 0.0455778668	 0.01828
C	 0.6919346884	-0.5557101073	-1.2495945414	-0.407825
C	 0.8924866904	-0.4659220593	 1.2813329822	-0.126664
C	 2.2320827561	 0.1475351315	 1.2789700092	 0.319603
N	 3.2897708839	 0.6122158413	 1.2625999328	-0.337158
N	 0.2072446435	-0.1051563071	 2.5233849914	-0.063475
C	-0.7191479303	-1.1086946144	 3.0462744291	-0.22675
C	 0.5859778238	-0.8590720743	 3.7159112493	-0.218582
H	 0.7987207266	 2.0130044903	-0.1547997119	 0.134902
H	-0.8217557389	 1.7547936598	-0.8174708137	 0.11156
H	-0.5826951911	 1.8481065119	 0.9401691132	 0.136314
H	-0.911643627	-0.5134743698	 0.1800428557	 0.084656
H	 1.6828863395	-0.1193416794	-1.4139791479	 0.140427
H	 0.8018830375	-1.6455517904	-1.23284062	 0.111895
H	 0.0667281991	-0.2959018779	-2.1088439868	 0.120624
H	 1.0520347386	-1.558613227	 1.2138529597	 0.09806
H	-1.6422832248	-0.7202788582	 3.4650366713	 0.12766
H	-0.82513013	-2.0426353481	 2.4962007357	 0.116426
H	 1.3532229995	-1.6241655588	 3.6133205643	 0.123396
H	 0.6380963244	-0.2826856477	 4.6340414343	 0.130733
