19
gdb 6765	5.9442	0.71372	0.69021	2.9941	70.01	-0.2416	0.0375	0.2791	1648.5075	0.163644	-402.231056	-402.220805	-402.219861	-402.268708	34.246	
C	-0.168270746	 1.445713447	-0.1269042766	-0.481917
C	-0.2306405565	-0.0740907149	-0.0823583913	 0.406431
O	-0.9577917347	-0.6676792002	 0.6937606909	-0.372328
N	 0.580742342	-0.7127355303	-0.9788424378	-0.313574
C	 0.6011286901	-2.1569940988	-1.1295694444	-0.165262
C	 0.0382302897	-2.6205905821	-2.4770348698	-0.172407
C	 0.0623510587	-4.1363291977	-2.6258478683	-0.069405
O	-0.4275320601	-4.452357291	-3.9195959251	-0.420718
H	 0.6500624214	 1.8360733659	-0.7379762771	 0.109247
H	-1.1145567321	 1.8260985152	-0.5231924403	 0.151673
H	-0.0666977954	 1.8212547221	 0.893529813	 0.152423
H	 1.1289865961	-0.1584161891	-1.6154906707	 0.240884
H	 1.6286277246	-2.5240910276	-1.0035563088	 0.102039
H	 0.0038114789	-2.54981488	-0.3030161371	 0.150622
H	-0.9920007811	-2.265390845	-2.5863414687	 0.120074
H	 0.6162564083	-2.1833384291	-3.3012452847	 0.098353
H	 1.0913353161	-4.5090019709	-2.4875930051	 0.083352
H	-0.5571487196	-4.5958449086	-1.8388874077	 0.093874
H	-0.4521557005	-5.409668185	-4.0062589804	 0.286638
