22
gdb 7395	3.36759	1.14178	0.90609	1.8295	75.51	-0.2481	0.0756	0.3237	1342.6662	0.196855	-387.342512	-387.3319	-387.330955	-387.378362	37.765	
C	-0.081228534	 1.5123269083	-0.0756352339	-0.383411
C	-0.0285958445	 0.0198493335	 0.207994422	-0.033992
O	-1.3005480252	-0.5301154184	-0.073499946	-0.258964
C	-1.3842762876	-1.9464481658	-0.0114443654	 0.133847
C	-1.3346721957	-2.4743108511	 1.4231193521	-0.407164
C	-2.6976526617	-2.3358078638	-0.7194551953	 0.121147
C	-2.7730539539	-1.8077598396	-2.1491850658	-0.409984
O	-2.8879081017	-3.747722297	-0.6723619694	-0.429837
H	 0.886950061	 1.9757970324	 0.136792188	 0.11339
H	-0.333735343	 1.6964515765	-1.1238121261	 0.123591
H	-0.840002522	 1.993357336	 0.5482276966	 0.127094
H	 0.7391332836	-0.4660806797	-0.4179795089	 0.082433
H	 0.2535948391	-0.1549332754	 1.2575284289	 0.091127
H	-0.547632182	-2.384170325	-0.5897012501	 0.046263
H	-1.5347694894	-3.5476992192	 1.4265433465	 0.131973
H	-0.3594943399	-2.3017372681	 1.8864703605	 0.109245
H	-2.0981550697	-1.976086643	 2.0298956626	 0.119188
H	-3.5266132611	-1.9196694752	-0.1339207532	 0.094322
H	-1.9591820285	-2.225408247	-2.7573600117	 0.09763
H	-3.7233272311	-2.0948206586	-2.6074698198	 0.118682
H	-2.6773432227	-0.720782424	-2.1646145663	 0.13675
H	-2.2782560701	-4.1434884357	-1.3052648655	 0.276673
