16
gdb 74841	2.48495	1.80179	1.14892	2.4871	71.25	-0.2577	-0.0146	0.2432	1047.6635	0.124774	-437.931945	-437.924304	-437.92336	-437.964168	28.977	
C	-0.0067930939	 1.4940111311	-0.0893202745	-0.457581
C	-0.1045203782	 0.0089201445	 0.0479963004	 0.3931
N	-1.1650940623	-0.6439712295	-0.169242651	-0.275864
C	-1.1332576155	-2.0624903421	-0.0788368896	 0.005235
C	-0.2612856614	-2.8196705967	-1.03002888	-0.300587
C	 0.1431640607	-2.7378063079	 0.4334529958	-0.189354
C	 1.2379761884	-1.8413936312	 0.846400615	 0.430145
O	 2.196260716	-2.1538530737	 1.4915392832	-0.318695
O	 1.1134602882	-0.5162085288	 0.4529300157	-0.252477
H	 0.7564996201	 1.7541184217	-0.8298848225	 0.148139
H	-0.9707760362	 1.896899996	-0.3969546795	 0.15073
H	 0.3009219489	 1.9416874425	 0.8607795264	 0.150807
H	-2.0818123602	-2.5068284671	 0.2006037709	 0.114239
H	-0.5957626684	-3.7913758673	-1.3734669091	 0.136785
H	 0.3073483399	-2.2475877288	-1.754333564	 0.139921
H	 0.0845083339	-3.6440338227	 1.0228025029	 0.125458
