14
gdb 16720	6.1564	1.41672	1.26279	5.3831	69.94	-0.2547	-0.0481	0.2066	924.2147	0.109594	-341.583454	-341.577081	-341.576137	-341.613993	24.441	
N	 0.0496833512	-1.1238922812	 0.1262451544	-0.335198
C	-0.01098154	 0.0322532833	 0.0772589236	 0.208682
C	-0.0426346649	 1.4502310727	 0.0031858768	 0.186719
C	-1.1526416415	 2.2061897532	-0.0337791526	-0.132013
C	-0.7994709472	 3.649880204	-0.0270052401	-0.080905
N	-0.0642656695	 4.0390560449	 1.2136837041	-0.324607
C	 0.6914527716	 3.7152721372	-0.0084527143	-0.050631
C	 1.2308884515	 2.290213424	-0.0276796484	-0.308322
H	-2.1658233457	 1.8255064243	-0.036224426	 0.127024
H	-1.4259861342	 4.3846251138	-0.5190911249	 0.102996
H	-0.1088967642	 5.0526368287	 1.307406349	 0.236058
H	 1.2350241673	 4.5029037905	-0.5179434869	 0.100753
H	 1.8713834561	 2.0825548275	 0.8354664539	 0.142609
H	 1.8165001393	 2.0844013471	-0.9310845485	 0.126836
