21
gdb 101240	3.93578	0.75392	0.67948	1.3059	74.98	-0.2574	0.057	0.3144	1650.7888	0.181418	-461.340421	-461.330578	-461.329633	-461.375533	36.832	
O	 0.0676041685	 1.4178679797	-0.0927304853	-0.424263
C	 0.060251769	 0.0165148871	 0.0660850643	-0.061455
C	-1.3661008409	-0.535177756	-0.0111671144	 0.08245
O	-1.9843227811	-0.0501613286	-1.2119726701	-0.443283
C	-1.4407317866	-2.0479951575	 0.0928144442	 0.009
C	-1.1363478219	-2.7215409097	 1.4633381147	-0.29165
C	-2.2871201529	-3.7205247916	 1.1636929342	 0.170733
O	-3.1032891211	-4.1941192545	 2.2011765391	-0.430428
C	-2.844058946	-2.7160713214	 0.1205206651	-0.286042
H	-0.5795297381	 1.595795963	-0.7882464773	 0.284286
H	 0.6777267905	-0.4818276676	-0.7053646098	 0.069095
H	 0.510051802	-0.2101711732	 1.0388769202	 0.110667
H	-1.9555805859	-0.080250053	 0.7948328923	 0.088424
H	-1.6015342233	-0.534269914	-1.9535922174	 0.28144
H	-0.8191251096	-2.4972281793	-0.693430907	 0.065818
H	-0.1357434302	-3.1186315828	 1.6465739562	 0.10638
H	-1.4088555737	-2.0568982055	 2.2924450197	 0.096304
H	-1.8974750623	-4.615509154	 0.6689342609	 0.094697
H	-3.4882397335	-3.4333664648	 2.6491903326	 0.276652
H	-3.5804017869	-2.0448287266	 0.5782776962	 0.097979
H	-3.261525726	-3.1083814396	-0.8088995185	 0.103197
