19
gdb 65687	4.04152	0.85345	0.82404	0.5769	76.51	-0.2508	-0.0342	0.2166	1416.0235	0.155445	-423.046957	-423.037424	-423.03648	-423.082407	34.564	
C	-0.2537271772	 1.5869223333	 0.1258488784	-0.448597
C	 0.0269439815	 0.0872920141	-0.0053005682	 0.308235
C	-1.2416939765	-0.6948042363	-0.3819782308	-0.340632
C	-1.8116561712	-0.2893566025	-1.7246902191	 0.162188
O	-2.9417064688	 0.0818574695	-1.9100597502	-0.238518
C	 1.295019061	-0.2046576218	-0.8882320933	-0.394186
C	 2.0699907792	-0.4917953297	 0.4064548616	 0.412604
O	 3.2295278468	-0.6223748886	 0.6663379468	-0.285014
C	 0.7849999859	-0.4758791012	 1.2471141404	-0.394924
H	 0.6498366045	 2.1313956409	 0.4199295006	 0.123011
H	-0.6062153041	 2.0145841202	-0.8187769229	 0.130646
H	-1.0212506878	 1.7762188197	 0.8838167707	 0.127917
H	-0.9978773478	-1.765717566	-0.4421442141	 0.114492
H	-2.0223009545	-0.5681552853	 0.3749787123	 0.123889
H	-1.0896138249	-0.3599996964	-2.572107323	 0.076487
H	 1.2095535708	-1.1065947126	-1.5047701945	 0.128022
H	 1.6777951169	 0.6063810569	-1.513408834	 0.132955
H	 0.8001656817	 0.1448161462	 2.1470787629	 0.131877
H	 0.4784194644	-1.4892860405	 1.5293383463	 0.129547
