16
gdb 44826	3.01264	1.2555	1.01458	2.0958	75.31	-0.248	-0.0258	0.2222	1170.6031	0.122432	-400.683925	-400.675542	-400.674597	-400.717781	31.091	
O	-0.5030102159	 0.0899116115	-0.2465401615	-0.30002
C	-0.2671255909	 1.2372971537	-0.0024382647	 0.364543
C	-1.1142324614	 2.5245749363	 0.068208652	-0.292803
N	 0.1434467293	 3.3411595982	-0.0924631047	-0.15715
C	 0.9268565548	 3.0493006328	 1.1033713876	-0.267736
C	 0.9905089565	 2.0581886697	-0.0094744193	 0.208994
C	 2.2321066668	 1.7909171814	-0.82869091	-0.467115
C	 3.232310629	 1.0189058401	-0.0981677601	 0.310939
C	 4.0488644877	 0.389328525	 0.5179278671	-0.447205
H	-1.7663229127	 2.6224979919	-0.8033369507	 0.146033
H	-1.6775956346	 2.740542637	 0.98009674	 0.131968
H	 1.8041166663	 3.6786982738	 1.2231931891	 0.140334
H	 0.4147004104	 2.8016227567	 2.0308046243	 0.125858
H	 1.9504078608	 1.2603483106	-1.7464205247	 0.149788
H	 2.6517753067	 2.7558836433	-1.1386362071	 0.151416
H	 4.771050137	-0.175227522	 1.053950023	 0.202153
