8
gdb 334	5.87397	2.89114	2.05305	2.3093	40.41	-0.3463	-0.0464	0.3	546.2842	0.04917	-300.148891	-300.142982	-300.142038	-300.178386	19.442	
O	-0.0462059332	 1.43962356	 0.010252728	-0.374348
C	 0.0376075464	 0.0375899895	 0.001912791	-0.121136
C	 0.6918503821	-0.4842412302	-1.2190763322	 0.281664
N	 1.1995830608	-0.8557060676	-2.1868814514	-0.290148
C	 0.714961129	-0.497276367	 1.2045203434	 0.281663
N	 1.2410196848	-0.8790768241	 2.1584156001	-0.290148
H	 0.8466475431	 1.8073087372	 0.0037245116	 0.315248
H	-0.9973516829	-0.3242458277	 0.0098353994	 0.197206
