22
gdb 104813	1.94607	1.44785	1.13214	3.3845	82.28	-0.2395	0.0405	0.28	1240.3452	0.193471	-404.383287	-404.373141	-404.372197	-404.418274	37.22	
C	-0.1942861626	 1.4763691583	 0.0100778022	-0.39671
C	-0.0440700939	-0.0495276156	-0.0268915354	-0.241692
C	 0.6222944293	-0.5812731651	-1.3053368123	 0.17319
C	 2.0347431558	-0.044793463	-1.5756352393	-0.231286
C	 3.0519441485	-0.3195704472	-0.4624859827	-0.3979
C	 0.4656137066	-2.1295730335	-1.5079179766	-0.22043
N	-0.3807349744	-1.8292398067	-2.6640703244	-0.327801
C	-0.3015733771	-0.4650242119	-2.5544268685	 0.407731
O	-0.7780996397	 0.4386474246	-3.1923772803	-0.379289
H	 0.7767293581	 1.978407639	 0.0649237066	 0.115912
H	-0.7084492187	 1.8358872524	-0.8853116372	 0.151752
H	-0.7717819164	 1.7833151896	 0.8873244532	 0.109978
H	 0.5231212272	-0.3943062096	 0.846630603	 0.097913
H	-1.036760152	-0.5098075202	 0.056663419	 0.100001
H	 2.3961507043	-0.4863227939	-2.5130452011	 0.100049
H	 1.969553201	 1.0327289107	-1.7617121353	 0.119384
H	 2.7857404754	 0.1897691308	 0.4686081881	 0.123511
H	 3.1322064898	-1.3904071892	-0.244006356	 0.114319
H	 4.0457788811	 0.0318128526	-0.7561502398	 0.118224
H	 1.3894175976	-2.6625468242	-1.7567807854	 0.107306
H	-0.0526863095	-2.6527364549	-0.6974097757	 0.10789
H	-0.8787427902	-2.4218477629	-3.3117182821	 0.247947
