12
gdb 133328	2.41553	1.80915	1.03504	4.7559	60.84	-0.2454	-0.0388	0.2067	1001.1607	0.077143	-518.071336	-518.064213	-518.063269	-518.102853	27.051	
N	-0.0142489642	 1.4177797213	 0.1586269279	-0.60447
C	 0.027101489	 0.0534567445	 0.0556342225	 0.076599
C	-1.1292894516	-0.749582238	 0.0245151993	 0.321278
F	-2.2967062814	-0.1010929594	 0.0392668624	-0.074046
N	-1.1717609288	-2.051385232	-0.0240618653	-0.25177
N	-0.0302459999	-2.7490202518	-0.0492626727	-0.219946
C	 1.1202690058	-2.081676309	-0.0306838532	-0.07987
C	 1.1923449924	-0.6955802568	 0.0188149324	 0.222816
F	 2.3678635427	-0.0595833778	 0.0259280156	-0.073911
H	 0.8202497559	 1.9172987493	-0.1044295631	 0.272131
H	-0.8833218775	 1.8585378554	-0.0967738495	 0.274507
H	 2.0291931775	-2.6737378057	-0.0572588964	 0.13668
