16
gdb 54619	4.21735	1.03514	0.84294	9.819	88.77	-0.1341	-0.0456	0.0886	1293.9095	0.125094	-434.092954	-434.084441	-434.083497	-434.125733	33.331	
N	 0.0213752083	 1.2888793614	 0.2969625385	-0.535293
C	-0.0433047516	-0.0258473123	-0.0202219192	 0.300654
N	 1.1473930454	-0.6245321539	-0.3215579235	-0.548232
H	 1.9634160318	-0.3444048969	 0.2042608923	 0.261091
H	 1.1045849141	-1.6001455564	-0.5690941818	 0.268881
C	-1.271621267	-0.689914799	-0.0591718984	 0.30108
C	-2.5873608055	-0.1293409279	-0.1362745969	-0.527273
C	-3.543367033	-1.1644540959	-0.0508507743	 0.398776
O	-4.764280404	-1.2630104783	-0.0860654563	-0.456782
N	-2.6973976041	-2.3676961543	 0.1145968049	-0.301219
C	-1.392484582	-2.0887796653	 0.1019941737	-0.150894
H	-0.6370232508	-2.8249666906	 0.3360871758	 0.115836
H	 0.7686793215	 1.8609828031	-0.0604792597	 0.267162
H	-0.85087927	 1.7446923985	 0.5122286114	 0.286276
H	-2.836113229	 0.8909055548	-0.3840293748	 0.066472
H	-3.109132954	-3.2777771769	 0.2536475584	 0.253467
