18
gdb 24613	4.98644	1.05042	0.89572	1.8176	79.3	-0.1847	0.0297	0.2145	1279.7267	0.149546	-401.94589	-401.938201	-401.937256	-401.97873	29.091	
C	-0.1785208985	 1.541421664	 0.0704978075	-0.233198
C	 1.3444655697	 1.5354631865	-0.2178668567	-0.168012
N	 1.4117257194	 0.1755619052	 0.3371779391	-0.159352
C	-0.0526801646	 0.0108229264	 0.2898017892	-0.169541
C	 2.3027095081	-0.7789311353	-0.1233218921	 0.271341
C	 3.4912460745	-0.5814563047	-0.7707152251	-0.114067
O	 4.0999253421	-1.784789569	-1.0170814587	-0.147994
C	 3.2827214961	-2.7458671867	-0.5335632679	 0.016378
C	 2.1698566485	-2.2049156355	 0.0263115108	-0.290648
H	-0.4423838706	 2.0860922371	 0.978337157	 0.116171
H	-0.8267308113	 1.8627151695	-0.7445362443	 0.111329
H	 1.5838951039	 1.5689384908	-1.2922818064	 0.095242
H	 1.9632345166	 2.2735918077	 0.3036252306	 0.107136
H	-0.4951327078	-0.4057243866	 1.2008462443	 0.106486
H	-0.3949213782	-0.5793709228	-0.5728338277	 0.099313
H	 4.0297485383	 0.2950624431	-1.0852031565	 0.12276
H	 3.6224501584	-3.7608600897	-0.6602370501	 0.131166
H	 1.3555260955	-2.7367417602	 0.4924625171	 0.105489
