18
gdb 51787	4.35767	0.96669	0.86605	4.9133	74.52	-0.2559	0.0235	0.2795	1339.3238	0.148208	-439.072112	-439.063957	-439.063013	-439.10612	30.037	
N	-0.0896051216	 1.2988778033	 0.0972715388	-0.44196
C	-0.0469154265	 0.0415794945	 0.0035295972	 0.12685
O	-1.1829302997	-0.6805956321	 0.0450838742	-0.192153
C	-1.0598842888	-2.1006576313	 0.049903898	 0.12142
C	-1.1167664318	-2.7039609978	 1.4710441414	-0.255336
C	-1.708108075	-4.1197519446	 1.2844213255	-0.247048
C	-2.5867197721	-3.9758908144	 0.0531056948	 0.0488
O	-3.4215550835	-2.8127038189	 0.0917704987	-0.248728
C	-2.2163006368	-2.7564399327	-0.6765466397	 0.022064
H	 0.8497697219	 1.6839082192	 0.0257307499	 0.228475
H	 0.8563258149	-0.5728685951	-0.1272638888	 0.081084
H	-0.1294113588	-2.3853453354	-0.464271898	 0.082741
H	-0.1412208447	-2.7061939326	 1.962047291	 0.10198
H	-1.7943834765	-2.0847125223	 2.0615530351	 0.143848
H	-0.925680667	-4.8610872973	 1.0818119914	 0.106928
H	-2.2648306577	-4.4621937081	 2.16175584	 0.118858
H	-3.0153443508	-4.8444026343	-0.4400468895	 0.099398
H	-2.3405623258	-2.62556286	-1.74785942	 0.10278
