20
gdb 105971	3.90313	1.2056	1.16312	1.6099	82.55	-0.2071	0.0745	0.2816	1181.0899	0.169577	-365.906621	-365.898107	-365.897163	-365.939559	32.926	
C	-0.0297377244	 1.51889017	 0.0279813236	-0.383862
C	 0.0897120438	-0.0089752083	 0.0124252192	-0.33028
C	 0.6786912861	-0.5574336639	 1.272207207	 0.383806
C	 0.6223951899	-0.1330784892	 2.6998055446	-0.112094
C	 1.0158965724	-1.5506249717	 3.1719085069	-0.167102
C	 1.0752100769	-1.997281796	 1.6999616368	-0.247893
C	 2.2880777439	-1.4041653987	 2.3731114005	 0.397265
C	 3.6853086003	-1.8752991589	 2.5703006318	-0.517375
N	 1.9133876924	 0.0161471334	 1.9280144886	-0.253117
H	 0.9436598319	 1.9766704996	 0.2238547772	 0.143579
H	-0.4008682947	 1.888894792	-0.9317761223	 0.11136
H	-0.7229657906	 1.8531053868	 0.8067487501	 0.115497
H	-0.8964333923	-0.4656902379	-0.1468245616	 0.101921
H	 0.7162162553	-0.3249777878	-0.8328912853	 0.104968
H	 0.1486595459	 0.7093378625	 3.1907782081	 0.091762
H	 0.7921888609	-2.1366980521	 4.052345525	 0.091066
H	 0.901855878	-2.9778492043	 1.2778187043	 0.089815
H	 4.2605719328	-1.7950986498	 1.6411999215	 0.128535
H	 4.1947943644	-1.2820009235	 3.3376264499	 0.129597
H	 3.6937127273	-2.9236988121	 2.8872748741	 0.122552
