17
gdb 42820	3.17654	1.46637	1.31998	2.935	72.77	-0.2341	-0.0052	0.229	1005.3774	0.138336	-417.958739	-417.951688	-417.950744	-417.990202	28.203	
O	 0.0298449571	-0.0114157022	-0.1325010678	-0.326406
C	 0.0095701983	 1.1653270912	 0.071114642	 0.423961
C	-1.0508652276	 2.2938911819	 0.0540390346	-0.133038
C	-0.8021098993	 3.0374759706	 1.3771743609	-0.302289
C	 0.7449144438	 3.0580537386	 1.3310349395	 0.413469
C	 1.5861361915	 4.1332235351	 1.8912890795	-0.307801
N	 1.6127891552	 2.7697329729	 2.4687534773	-0.372599
C	 1.0065460235	 2.346841724	 0.0116861144	-0.208532
N	-0.0602828135	 3.0078354888	-0.8511042052	-0.320759
H	-2.0710329442	 2.1570314647	-0.2987410982	 0.095274
H	-1.2371080451	 4.0397954079	 1.3588949881	 0.121609
H	-1.1940879848	 2.4897215716	 2.2398183181	 0.113926
H	 2.5023471263	 4.4350857392	 1.3909867854	 0.122309
H	 1.0901908209	 4.9260699793	 2.4463197007	 0.114256
H	 1.0729850876	 2.7419722895	 3.3304595886	 0.232238
H	 2.0258335815	 2.2765211086	-0.3597211994	 0.096295
H	-0.067216921	 2.5493494483	-1.7632647285	 0.238087
