18
gdb 41886	2.45009	1.90109	1.4297	3.2933	71.66	-0.2353	0.0197	0.255	959.6581	0.150172	-439.065551	-439.058172	-439.057227	-439.097556	28.264	
C	 0.1043105601	 1.6024948672	 0.0187859533	-0.080955
O	 1.4434191675	 1.5054258491	-0.5107437972	-0.287262
C	 1.3512883018	 0.0676502224	-0.6173781548	 0.127565
C	 2.5448233962	-0.6689694192	-0.0224927339	-0.196971
N	 2.9521756314	-0.3757017064	 1.3402147901	-0.25054
C	 2.2152739103	-0.0260763054	 2.2964070286	 0.137759
O	 0.8667502661	 0.122207409	 2.4318207753	-0.222708
C	-0.0153559954	-0.5289611054	 1.5114476676	-0.109676
C	-0.0106451793	 0.0662093818	 0.116879165	-0.085619
H	 0.0789103581	 2.1500210517	 0.9663871613	 0.116986
H	-0.58572742	 2.0702168966	-0.6946169561	 0.099388
H	 1.2653292762	-0.2371444313	-1.6721607799	 0.07295
H	 2.3759131972	-1.7501042135	-0.1352890959	 0.112055
H	 3.4103967564	-0.4437331795	-0.6582798602	 0.124957
H	 2.6741421725	 0.2369387436	 3.2499933313	 0.121529
H	 0.2251264719	-1.5997584729	 1.4743704335	 0.115962
H	-1.004939451	-0.425352725	 1.9666687342	 0.121093
H	-0.8314218202	-0.3778604227	-0.4529010122	 0.083488
