16
gdb 52039	3.65541	0.73252	0.64063	3.9422	69.01	-0.262	-0.0507	0.2114	1641.0001	0.120955	-475.060952	-475.051197	-475.050252	-475.097762	32.009	
O	-0.1488903121	-0.0331328859	-0.2659282141	-0.219644
C	-0.0061251449	 1.1460958198	-0.0811375162	 0.15653
C	 1.3263014657	 1.8671269501	-0.1151535188	-0.270643
C	 1.3629373443	 2.9224887035	-1.2374617732	-0.220352
N	 2.583283911	 3.7301345833	-1.2245224454	-0.082881
C	 3.7010940835	 3.2512982424	-1.9281026472	 0.164387
O	 4.7809113174	 3.7653662238	-1.9836472402	-0.253861
C	 2.581132973	 4.9294415905	-0.4952306745	 0.165472
O	 3.5053865402	 5.6756724836	-0.3453444669	-0.254078
H	-0.8815059827	 1.8059001507	 0.1247531246	 0.081295
H	 1.4677243282	 2.3745455262	 0.8485904654	 0.134503
H	 2.1260331658	 1.1326481395	-0.2418768467	 0.13906
H	 1.2805232361	 2.4341148156	-2.2126034916	 0.147354
H	 0.5050235135	 3.5967138199	-1.1514836547	 0.13638
H	 3.4486802047	 2.3075637241	-2.4527302881	 0.091555
H	 1.5760260064	 5.1139839429	-0.0632834624	 0.084924
