18
gdb 87290	2.76141	1.29107	1.09315	1.2341	73.84	-0.2382	-0.0438	0.1944	1160.5405	0.145174	-439.031411	-439.022411	-439.021467	-439.065237	32.731	
C	-0.1211516623	 1.5870095881	 0.2605552343	-0.333758
N	-0.1106550213	 0.1358047244	 0.4333187133	-0.112894
C	 0.9834671427	-0.6225863271	-0.1114352668	-0.258544
C	 0.8152203486	-0.5075389737	 1.3867542714	 0.197648
C	 1.8383435139	 0.2949473863	 2.1227999941	 0.088999
O	 2.4924419757	 1.1985034408	 1.6560455894	-0.269436
C	 0.2361390452	-1.6609387857	 2.1664160378	 0.000884
C	-1.2067578925	-1.8156692945	 2.3985488841	-0.177551
O	-0.5183546302	-2.6165747373	 1.4326813734	-0.234428
H	 0.8720541643	 2.0481138973	 0.2784228427	 0.148725
H	-0.599402863	 1.7965026696	-0.7009487337	 0.129809
H	-0.733545344	 2.0343980499	 1.0492708514	 0.123617
H	 0.7208406682	-1.5738272945	-0.5643028115	 0.142614
H	 1.8250307491	-0.0823058492	-0.5413858498	 0.132821
H	 1.9634910005	 0.0024043282	 3.1896919885	 0.080937
H	 0.9252031631	-2.0998526424	 2.8913720142	 0.094203
H	-1.5577861385	-2.3482441295	 3.2809944495	 0.115373
H	-1.8801896695	-1.0746262808	 1.9762897177	 0.13098
