18
gdb 71432	4.49848	1.10048	1.01575	3.9167	76.84	-0.2332	-0.0236	0.2095	1200.3538	0.146853	-401.879232	-401.871234	-401.87029	-401.91197	30.439	
C	 0.1247670206	 1.4533325526	-0.2891192317	-0.508933
C	-0.0327793958	-0.0212744462	-0.0680675384	 0.309234
C	-1.3002060405	-0.8528069951	 0.0488151113	-0.219909
N	-0.4818212838	-1.9769190286	 0.6553687199	-0.187103
C	 0.5965897696	-0.9114520507	 0.9621669972	-0.080635
C	 1.0631011234	-1.042735151	-0.4633821155	-0.128714
C	 0.3639296362	-2.3944872376	-0.5443064157	-0.07217
C	 1.2729372892	-3.5375607534	-0.1625567805	 0.174132
O	 1.5949322912	-4.4222675497	-0.9130253531	-0.256984
H	 1.1600563248	 1.7712733785	-0.1280957232	 0.125624
H	-0.1525178347	 1.7337903506	-1.3114288795	 0.128731
H	-0.508585729	 2.0238755919	 0.3991058864	 0.126687
H	-1.9846727595	-0.4631478456	 0.8079402798	 0.111033
H	-1.8635190287	-1.1283197676	-0.8502562331	 0.103294
H	 1.0820771014	-0.755001606	 1.9147549344	 0.104424
H	 1.998534071	-0.7226752021	-0.9055773537	 0.101822
H	-0.1999112944	-2.660611559	-1.4437277476	 0.088868
H	 1.6471196989	-3.4926633809	 0.884527823	 0.080599
