20
gdb 113908	4.09326	0.71544	0.65179	2.6997	76.39	-0.237	0.0364	0.2734	1697.888	0.169596	-440.298121	-440.287719	-440.286775	-440.334902	36.856	
N	 0.404612477	 0.0998357786	 1.0560158616	-0.510913
C	 0.0081325909	 0.1407734444	-0.2478801886	 0.382229
O	 0.4473779573	 0.9483568657	-1.0427968279	-0.365256
C	-1.0639005811	-0.8819927371	-0.6430242787	-0.313854
C	-1.0627809881	-2.1797767492	 0.1417207947	-0.041432
C	-1.8486257826	-2.3350242132	 1.430839661	-0.293603
C	-2.2505773169	-3.1121037978	 0.2025693332	-0.009565
C	-3.5572814963	-2.8272490821	-0.491008958	-0.097438
O	-4.5749788924	-3.5363520924	 0.2040569623	-0.419993
H	 1.0800202179	 0.7762199862	 1.3706612995	 0.258157
H	 0.0288920217	-0.5690079618	 1.7047823395	 0.266639
H	-2.0286132035	-0.3702753603	-0.5454154762	 0.124918
H	-0.9194354295	-1.063602784	-1.7120883588	 0.131432
H	-0.1027061411	-2.689766335	 0.1206477715	 0.097404
H	-1.4066472562	-2.8712485607	 2.2638465747	 0.115252
H	-2.497557979	-1.5143550372	 1.7233906238	 0.118875
H	-2.0083094392	-4.1711056819	 0.2143742646	 0.096251
H	-3.7639053542	-1.7463591806	-0.4955512101	 0.083314
H	-3.498464408	-3.151629923	-1.5424527115	 0.091126
H	-5.3965332966	-3.4343583386	-0.2857716465	 0.286457
