18
gdb 20815	5.5507	1.2191	1.08897	2.2259	75.59	-0.2259	0.0265	0.2524	1144.32	0.154906	-344.014324	-344.005902	-344.004958	-344.048515	29.56	
C	 0.0415478852	 1.5893513572	-0.1895264514	-0.361049
C	 0.0052550374	 0.0791326009	 0.1031048195	-0.302474
C	-1.3822719437	-0.4937153311	 0.1114084483	 0.190601
C	-2.1845227413	-0.7760241228	 1.2015306393	-0.134179
N	-3.3700585083	-1.2366343769	 0.7271373452	 0.064816
C	-4.4949346769	-1.7402955224	 1.4838413968	-0.318925
N	-3.394533379	-1.2851434438	-0.618403566	-0.271234
C	-2.1993492329	-0.8338282561	-0.9916137181	-0.077157
H	 1.0703381075	 1.9641869905	-0.1959440017	 0.108085
H	-0.4062781695	 1.8106164086	-1.1634350763	 0.120116
H	-0.5206956296	 2.1470021077	 0.5661168477	 0.11612
H	 0.6121218058	-0.4445828569	-0.6456268128	 0.105985
H	 0.485152839	-0.1131417752	 1.0697080816	 0.098981
H	-2.0010614564	-0.6851241428	 2.2613877153	 0.12348
H	-4.504006013	-1.276555739	 2.4725169484	 0.135837
H	-5.4144343881	-1.4854927641	 0.9549527614	 0.155801
H	-4.443668244	-2.8285454036	 1.5994477044	 0.140958
H	-1.9611683622	-0.7630789102	-2.0439024814	 0.104237
