15
gdb 44274	3.54183	1.91652	1.50043	3.503	69.62	-0.2348	0.0127	0.2475	854.6273	0.115399	-416.738534	-416.732612	-416.731668	-416.768692	24.748	
N	-0.0583304464	 1.3121082985	-0.2116286368	-0.540853
C	 0.0060821903	 0.0689619614	 0.022339051	 0.432099
O	 1.1829665269	-0.6047210874	 0.1461112492	-0.251271
C	 1.0707892745	-1.9887274814	 0.3618611535	 0.106631
C	 0.0660329872	-2.6193782942	 1.2806130773	-0.16237
C	-0.0051157931	-2.8276196229	-0.2371587818	-0.066169
N	-1.3475286444	-2.1404509324	-0.3284866095	-0.15986
C	-1.275789552	-1.8932118029	 1.1395428166	-0.052736
C	-1.2165929456	-0.7416339514	 0.1972065089	-0.124389
H	 0.8806691316	 1.7089984907	-0.2827755259	 0.221097
H	 2.0593580187	-2.4328359443	 0.3778108743	 0.126543
H	 0.3250407881	-3.2954161193	 2.084019942	 0.108618
H	 0.1625430301	-3.6908595576	-0.8684626025	 0.11624
H	-2.130006594	-2.0701539191	 1.7833200765	 0.114832
H	-2.1272076718	-0.1726323076	 0.0526018774	 0.131588
