21
gdb 82307	2.21848	1.71225	1.33574	1.0899	76.95	-0.2561	0.0741	0.3302	1068.3883	0.181751	-424.226843	-424.217991	-424.217047	-424.259513	35.305	
C	 0.022218968	 1.590315919	-0.0680340514	-0.4212
C	 0.0974669811	 0.0655551029	 0.0170789261	-0.018243
C	 0.7400195107	-0.6087276466	-1.1784214002	 0.03454
O	 2.1788044565	-0.5929639105	-1.1696906246	-0.263444
C	 1.4963733957	-1.7829815033	-0.7372025815	 0.04589
C	 1.3763391296	-1.9125899567	 0.7649564019	-0.304648
C	 0.84840524	-0.5257197976	 1.2558084361	 0.374031
C	 1.998730008	 0.3454323233	 1.7660774435	-0.448036
O	-0.1397162232	-0.6671181981	 2.2789377257	-0.480668
H	 1.0094006912	 2.0352010718	-0.221679795	 0.127118
H	-0.6134850746	 1.8948012293	-0.9060716319	 0.109976
H	-0.4099496855	 2.0101387082	 0.8451656246	 0.125726
H	-0.925688459	-0.32777813	 0.0873937962	 0.091155
H	 0.2858085758	-0.5296238379	-2.1636606327	 0.090582
H	 1.6529868981	-2.6573639777	-1.3638835919	 0.093365
H	 0.6298411077	-2.6787232589	 1.0024807343	 0.109618
H	 2.3182255424	-2.1965771767	 1.2463570252	 0.098996
H	 2.7495021668	 0.4897363895	 0.9869996296	 0.146441
H	 1.6361036269	 1.3197484858	 2.1033343432	 0.118804
H	 2.4867762729	-0.1480778106	 2.6166648583	 0.097069
H	 0.3165555908	-0.8360519553	 3.1099907043	 0.272928
