18
gdb 112101	2.82634	1.46252	1.04719	4.092	75.29	-0.2188	-0.0003	0.2185	1157.4961	0.148509	-439.136639	-439.128071	-439.127126	-439.170406	31.311	
C	-0.0905606198	 1.5705426897	 0.0136160396	-0.380219
C	-0.0083698068	 0.0431642633	 0.013857114	-0.156099
N	-1.3214190656	-0.6089178237	 0.0274485629	-0.162584
C	-1.978566146	-0.8376171799	 1.2389962946	 0.03402
C	-3.1380363624	-1.4881484615	 1.2879120671	-0.170571
C	-3.6940411217	-2.0064839418	-0.0001781354	-0.129368
O	-3.2471917853	-1.2290398421	-1.1282946081	-0.249598
C	-1.9961338748	-0.7182140435	-1.1804842959	 0.482674
O	-1.532569135	-0.3418768478	-2.2284906579	-0.389151
H	 0.9153414733	 2.0018824952	 0.0157403892	 0.119805
H	-0.6126403911	 1.9169985908	-0.8810950478	 0.152487
H	-0.620968158	 1.9418342728	 0.8965943194	 0.116014
H	 0.5140933494	-0.3034051832	-0.8788317007	 0.143692
H	 0.5415945129	-0.3194065674	 0.8878559546	 0.107766
H	-1.4762811613	-0.4402289605	 2.1132544498	 0.119993
H	-3.66065334	-1.6587994381	 2.2188944876	 0.108124
H	-3.4131630182	-3.057260245	-0.1742849509	 0.120998
H	-4.7856888397	-1.9510796073	-0.0325540822	 0.132016
