19
gdb 35166	3.47023	1.25918	1.10497	0.9763	87.35	-0.2362	0.0515	0.2876	1154.4034	0.159116	-348.649764	-348.641912	-348.640967	-348.681982	31.694	
C	-0.0247869708	-1.1970727879	-0.0298612027	-0.467829
C	-0.0192194387	 0.0063046995	-0.0035204342	 0.338036
C	 0.0024689508	 1.4392694606	 0.0214155182	-0.340597
C	 0.506661706	 2.1767073705	 1.2833132619	-0.405105
C	 1.3085163362	 2.1861385653	 0.0386437591	 0.486036
C	 2.7431804866	 1.73974362	-0.2882658722	-0.123892
C	 2.4482791263	 2.1775093658	-1.7567613802	-0.213804
C	 1.8541357904	 3.3097609479	-0.8617863964	-0.133213
C	 3.161507871	 3.2191828892	-0.0142925397	-0.217534
H	-0.0351669886	-2.258278739	-0.051326447	 0.191829
H	-0.8238130871	 1.9207104161	-0.4963118841	 0.109577
H	-0.0400102055	 3.0687403609	 1.5731249334	 0.116898
H	 0.8289680311	 1.5526887731	 2.1101291833	 0.127112
H	 3.2424751907	 0.8315157471	 0.0476934414	 0.081731
H	 3.317117245	 2.448995175	-2.3623775561	 0.08869
H	 1.7367149538	 1.56618862	-2.3155220969	 0.103573
H	 1.3315052548	 4.2108300357	-1.1852469383	 0.073099
H	 3.102755291	 3.5644776699	 1.020481475	 0.095324
H	 4.077228257	 3.5589241304	-0.5055114645	 0.09007
