12
gdb 339	5.40263	2.49803	1.88284	3.0426	48.36	-0.2559	-0.0573	0.1986	637.0667	0.093292	-306.383308	-306.376314	-306.37537	-306.414827	22.644	
C	-0.0187702115	 1.4842103973	 0.002210595	-0.420507
C	 0.0161948111	-0.0627912825	-0.0198192838	-0.142502
C	 0.7643469274	-0.5532718063	 1.2109459865	 0.15738
O	 1.8094779666	-1.1452695337	 1.1799926926	-0.232845
C	-1.4128336998	-0.5851561163	-0.0155617455	 0.15738
O	-1.9144093236	-1.2001200229	-0.9177678246	-0.232851
H	 0.9974198476	 1.8868403129	-0.0047485622	 0.147631
H	-0.5483510729	 1.86434417	-0.8751996442	 0.147621
H	-0.5279599726	 1.858860071	 0.8967464517	 0.132327
H	 0.5242024802	-0.4348408991	-0.9119121995	 0.122649
H	 0.2739408759	-0.296733799	 2.1790544722	 0.081859
H	-1.9925074684	-0.3296564614	 0.9021742417	 0.081856
