18
gdb 74149	2.70357	1.54069	1.07188	4.7065	84.1	-0.2236	-0.0256	0.1981	1137.981	0.147643	-401.967184	-401.958997	-401.958053	-401.999771	31.691	
C	-0.0337835015	 1.5002772349	 0.0340416749	-0.507488
C	-0.0080867872	 0.0098194514	-0.0203308585	 0.279419
C	-0.0180252083	-0.7963462257	-1.0914568266	-0.352546
C	 0.0175560899	-2.1976512537	-0.6511158653	 0.372411
N	 0.0236672124	-3.3053083013	-1.2695762265	-0.533643
O	 0.0492155547	-2.1931949305	 0.7217136067	-0.255244
C	 0.0354082277	-0.8586633778	 1.1789737381	 0.362859
C	 0.8142901246	-0.5649850123	 2.4374609491	-0.323363
C	-0.6949508334	-0.5925904548	 2.4722132037	-0.323372
H	 0.8527622286	 1.8944803521	 0.5448577636	 0.141805
H	-0.0662526644	 1.9305175299	-0.9691877374	 0.139489
H	-0.9077371954	 1.8626629222	 0.5882470149	 0.141755
H	-0.0473028271	-0.5026946095	-2.1317210904	 0.112874
H	-0.0023644613	-3.1378002336	-2.273595036	 0.217151
H	 1.3442077114	-1.4068390985	 2.8671277467	 0.142827
H	 1.322224907	 0.3897658428	 2.5178574515	 0.12112
H	-1.2332368425	 0.3430001979	 2.5767421548	 0.121121
H	-1.1733967553	-1.4529212534	 2.9250554568	 0.142827
