13
gdb 31433	3.15705	1.44001	0.99514	2.8558	63.05	-0.2896	-0.0677	0.2218	1095.4147	0.089873	-489.946236	-489.938731	-489.937787	-489.978775	26.543	
C	-0.0356611708	 1.3799290733	 0.0468886323	-0.235837
O	 0.0237090296	-0.053521767	-0.0394389437	-0.219767
C	 0.6243503147	-0.5739947844	-1.0896965573	 0.481277
N	 1.13974609	 0.1980093805	-2.006257726	-0.43019
C	 1.7529880427	-0.3746646379	-3.0778214824	 0.458767
O	 2.2769427904	 0.1511100838	-4.0062013284	-0.319296
O	 1.7680395443	-1.8338487424	-3.0856127435	-0.196556
C	 1.2018660104	-2.4764748566	-2.0813191635	 0.161779
N	 0.6191244496	-1.9510999213	-1.0628239801	-0.319959
H	 0.9707542826	 1.8027103266	 0.0693062973	 0.155374
H	-0.5747161937	 1.7915695473	-0.808736937	 0.155365
H	-0.5651935474	 1.5858560384	 0.9763043584	 0.145333
H	 1.2684849776	-3.5573052504	-2.1846779861	 0.16371
