21
gdb 92870	2.28271	1.51976	1.115	3.5669	84.78	-0.2324	-0.0464	0.186	1180.7136	0.182985	-387.138694	-387.129714	-387.12877	-387.172032	34.508	
C	-0.0187326187	 1.5768738128	-0.0587891826	-0.414521
C	 0.0477339004	 0.0470600583	-0.0355361292	 0.002881
C	 0.6703742201	-0.5209987641	-1.3219394801	-0.259904
C	 0.8502887787	-2.0099907613	-1.2599599074	-0.053661
C	 0.8558780083	-2.7025378032	-0.1137632737	-0.140157
C	 0.737191344	-2.0491904819	 1.2078542146	 0.361873
O	 0.6907260272	-2.6955546322	 2.2364916168	-0.344291
C	 0.7490908718	-0.5178990938	 1.2213690104	-0.085197
C	 2.2060871585	-0.0498317347	 1.4157137451	-0.410045
H	 0.9751110544	 2.0266127242	-0.1524035271	 0.119039
H	-0.6182906711	 1.9260714725	-0.9062275371	 0.113685
H	-0.4777595115	 1.9653878385	 0.8563661466	 0.117283
H	-0.9851134476	-0.3278864437	-0.0008719585	 0.083235
H	 0.0464240542	-0.2619596183	-2.1866216512	 0.110979
H	 1.6447299844	-0.0482099159	-1.5212979539	 0.119592
H	 0.9793328217	-2.5337799128	-2.2051365009	 0.106023
H	 0.9638968066	-3.7826777781	-0.0952300994	 0.104586
H	 0.1815488862	-0.2189989392	 2.1096227048	 0.091116
H	 2.8441564914	-0.3356460817	 0.573064573	 0.120006
H	 2.2625403731	 1.0358325391	 1.5317086266	 0.119836
H	 2.6211641578	-0.5072290046	 2.3178592932	 0.137643
