18
gdb 14942	4.45875	1.37179	1.12567	3.0734	74.57	-0.2425	-0.0241	0.2184	1057.7438	0.154962	-347.833398	-347.825825	-347.824881	-347.865917	28.233	
O	-0.1566617328	 0.0053441115	 0.0481492328	-0.248656
C	-0.0233444199	 1.2009919668	 0.0408153185	 0.1494
C	 1.307304927	 1.9370963134	 0.0312765657	-0.092643
C	 1.4126697709	 2.7785595024	-1.2592305636	-0.220928
C	 2.5025806679	 3.8501433753	-1.1432577257	-0.213316
C	 2.1999153241	 4.8169249048	 0.0090762745	-0.23927
C	 1.7766132945	 4.0832182099	 1.2540885724	-0.059112
C	 1.4061601017	 2.8030214326	 1.2695416942	-0.069116
H	-0.9084071852	 1.8811057428	 0.0390499207	 0.072919
H	 2.0862929037	 1.1641808229	 0.0501043633	 0.098441
H	 1.6011670663	 2.1186762747	-2.1118567733	 0.109242
H	 0.4473165748	 3.2695602231	-1.4467823062	 0.101066
H	 3.4688967729	 3.3632432236	-0.9626690132	 0.105988
H	 2.5949284576	 4.3982212905	-2.0865607913	 0.097751
H	 3.0789029214	 5.4354786534	 0.2283952335	 0.107298
H	 1.4114293201	 5.5257673419	-0.2851016071	 0.111691
H	 1.8024833488	 4.6394854877	 2.1884346684	 0.092507
H	 1.1504910663	 2.3259636427	 2.2129655765	 0.096738
