15
gdb 2101	4.87456	2.44231	1.75845	1.8373	58.54	-0.2514	0.0148	0.2662	707.5345	0.125967	-345.64767	-345.641106	-345.640162	-345.677965	24.563	
O	-0.0676232606	 1.432216182	 0.0204570082	-0.432178
C	 0.0291853266	 0.0111440676	-0.020266449	 0.069366
C	-1.4070828613	-0.5191131654	-0.0077668783	-0.086078
O	-1.431793516	-1.9089174418	-0.2689769152	-0.249342
C	-0.9933079038	-2.2326627297	-1.5741339679	-0.111081
C	 0.2453841841	-1.4875244896	-1.9869626613	-0.074719
C	 0.7250287821	-0.4766627251	-1.2679595802	-0.088623
H	 0.8220156827	 1.7922818104	 0.0889672566	 0.284611
H	 0.5565791251	-0.3590543045	 0.8742297103	 0.078876
H	-1.8708086151	-0.3727037074	 0.97048291	 0.112111
H	-1.987173837	 0.0447631291	-0.7551480037	 0.100279
H	-0.810725838	-3.3139612428	-1.5757011855	 0.118005
H	-1.7977231287	-2.0458092656	-2.3101606137	 0.100857
H	 0.7253644873	-1.8093881116	-2.9076978004	 0.095518
H	 1.6294783428	 0.0480920443	-1.5695371398	 0.082398
