22
gdb 118421	1.60915	1.14815	0.77788	3.2483	78.92	-0.2457	0.0312	0.2769	1559.7358	0.192072	-441.522289	-441.510672	-441.509727	-441.560739	40.118	
C	-0.3625143967	 1.4378254984	-0.0927966798	-0.395664
C	-0.1882276841	-0.0772346114	 0.044541093	-0.171529
C	 0.7829728455	-0.5126954311	 1.1698320218	-0.094358
C	 0.2519690009	-0.1917620441	 2.5738880042	-0.201382
C	 1.2757281287	-0.4433212612	 3.6830200135	-0.06919
O	 0.7766847949	-0.1097813724	 4.9689182597	-0.420516
C	 1.006502831	-2.0242644104	 1.0322822374	 0.408525
N	 2.1140879165	-2.3874097929	 0.3226738984	-0.52515
O	 0.2298340864	-2.8447824867	 1.4859578792	-0.378287
H	 0.5984174302	 1.9340035041	-0.2706547064	 0.11186
H	-1.0180159247	 1.6731660742	-0.9370312737	 0.117162
H	-0.8067445126	 1.8849314749	 0.8009721624	 0.12689
H	-1.1575047957	-0.5569804224	 0.2232205116	 0.118525
H	 0.1806604199	-0.4799511711	-0.9069780405	 0.096053
H	 1.7388292884	 0.0088048382	 1.0145398115	 0.061407
H	-0.0662886063	 0.8532549254	 2.6326494845	 0.099755
H	-0.6288336824	-0.8209763855	 2.7488096546	 0.113423
H	 1.6199446416	-1.4881132933	 3.6491387245	 0.100538
H	 2.1552162082	 0.1949223392	 3.535554576	 0.101016
H	 0.047571749	-0.7086234166	 5.1598328848	 0.282931
H	 2.7746604781	-1.7170101292	-0.0276002031	 0.258078
H	 2.2852101031	-3.3675954058	 0.1677963466	 0.259912
