21
gdb 74321	3.21603	0.93986	0.76078	0.9939	91.89	-0.2283	0.0299	0.2581	1531.0794	0.181551	-349.946993	-349.937479	-349.936534	-349.981577	35.769	
C	-0.0359198383	 1.5401975771	 0.1079182867	-0.489613
C	 0.0362469546	 0.0480647198	 0.0286875521	 0.326493
C	-0.0094732098	-0.7096653072	-1.0690865173	-0.168501
C	 0.0403422884	-2.1890185585	-0.766491896	-0.011873
C	 0.9978298372	-2.997753665	-1.6736167274	-0.364563
C	 0.5833811319	-3.0239748387	-3.0711966541	 0.30027
C	 0.216196517	-3.0322066109	-4.2161780612	-0.446898
C	 0.4609777691	-2.214564936	 0.7271013394	-0.236071
C	 0.1203042625	-0.8094835939	 1.2764430074	-0.300806
H	 0.8497636871	 1.9542138738	 0.606961832	 0.122836
H	-0.113057115	 1.9954980251	-0.88307524	 0.123349
H	-0.902464502	 1.8636420609	 0.6993999653	 0.123575
H	-0.1104473368	-0.3350894618	-2.0822246944	 0.094751
H	-0.9617594831	-2.6252051708	-0.8907218945	 0.085556
H	 2.0068027376	-2.5716407159	-1.596419969	 0.125878
H	 1.0668617052	-4.0264351403	-1.2959558762	 0.126261
H	-0.0969385885	-3.0466535228	-5.2304503545	 0.192083
H	-0.0168400651	-3.0233172326	 1.286488699	 0.09683
H	 1.5436210304	-2.3758328509	 0.789199688	 0.099815
H	 0.8658730431	-0.4431830813	 1.9927524404	 0.097954
H	-0.8418604257	-0.8001235701	 1.8093471445	 0.102672
