21
gdb 111988	4.10065	1.06821	0.94249	1.6769	83.87	-0.2404	0.0042	0.2446	1336.8474	0.181683	-387.091179	-387.082146	-387.081202	-387.12477	34.552	
C	-0.0812503008	 1.5462774014	-0.1257436086	-0.388359
C	 0.032440267	 0.0217438385	-0.0425938618	-0.170494
C	 0.7256526329	-0.4904407423	 1.2357190051	-0.068093
C	-0.0165107155	-0.1929824273	 2.5302565318	-0.082083
C	-0.2605129361	-1.2926333624	 3.2457589776	-0.13925
C	 0.2506791772	-2.5113970786	 2.5356371283	 0.38887
C	 0.6445708633	-3.7598041269	 3.2719504501	-0.494399
O	-0.4126856067	-2.7050299943	 1.2552252299	-0.30005
C	 0.8427212274	-2.014988059	 1.2814355659	-0.048673
H	 0.9031084555	 2.0244414229	-0.0640487938	 0.111637
H	-0.5385364403	 1.8515101796	-1.0720102568	 0.114914
H	-0.6984113639	 1.9530262825	 0.6818181029	 0.117705
H	-0.959000859	-0.4389763455	-0.1010432802	 0.11852
H	 0.5974240588	-0.3450483589	-0.9089211777	 0.095135
H	 1.7356776397	-0.0546080269	 1.2776477246	 0.07843
H	-0.3339157955	 0.8080143329	 2.8000152239	 0.10079
H	-0.7741345722	-1.3347614674	 4.1993139307	 0.09635
H	-0.2213931973	-4.200907345	 3.7780984647	 0.127764
H	 1.0473180864	-4.5029920398	 2.5796810118	 0.130824
H	 1.4008521774	-3.539602212	 4.0329316248	 0.124292
H	 1.6584266718	-2.5190995918	 0.7673114168	 0.086169
