14
gdb 28185	5.35908	1.32991	1.06993	6.0685	70.51	-0.1834	0.0325	0.2159	1039.0524	0.105427	-429.084646	-429.077672	-429.076728	-429.115705	27.225	
N	 0.0382937874	 1.3445954452	 0.1130792268	-0.59351
C	-0.0244539291	-0.0416787919	 0.0221863284	 0.359889
N	-1.1059906492	-0.7700837614	 0.1097639043	-0.379481
C	-0.6173684334	-2.0690083116	 0.1453823213	 0.294907
C	 0.7548151065	-2.0833525634	 0.0875177813	 0.307941
N	 1.1265367666	-3.3875569337	-0.1186943633	-0.385224
C	-0.0684303362	-4.0994370482	-0.0652856425	-0.011722
N	-1.1325910058	-3.3382087446	 0.0632148268	-0.330599
N	 1.1714622824	-0.7716633195	-0.0787279177	-0.431006
H	 0.5339748226	 1.7790693459	-0.6572132364	 0.250327
H	-0.898648005	 1.7226191408	 0.1794492041	 0.265489
H	 2.0464271198	-3.7920220835	-0.0791422588	 0.264802
H	-0.0655085128	-5.1787073548	-0.0952136938	 0.126244
H	 2.0495286261	-0.3830507993	 0.2265597895	 0.261943
