16
gdb 20119	4.36266	1.5939	1.26716	2.7764	67.33	-0.2473	0.0217	0.2691	960.516	0.130864	-379.892956	-379.885325	-379.884381	-379.925525	27.2	
O	-0.0005202034	 0.1539036079	 0.0012270134	-0.356634
C	-0.0166899005	 1.3638767665	 0.0069500752	 0.363379
N	 1.0258579272	 2.158479233	-0.4820786329	-0.094211
C	 1.7908896393	 3.0627434285	 0.3644735943	-0.223271
C	 2.4040401766	 1.8187237712	-0.2026393481	-0.212365
N	-1.0801114581	 2.1257217178	 0.5032764502	-0.094285
C	-1.8694440007	 3.0164403978	-0.3353748166	-0.223273
C	-2.4486536009	 1.7513213223	 0.2205733407	-0.212348
H	 2.0215868678	 4.0329250188	-0.0665702203	 0.123592
H	 1.5560775323	 3.072851117	 1.4252031623	 0.137486
H	 2.5760731597	 0.9818211525	 0.4681763586	 0.140403
H	 3.0857783387	 1.8863069212	-1.0452572933	 0.125023
H	-2.1262509899	 3.9761677246	 0.1042197368	 0.12359
H	-1.6350557069	 3.0423127554	-1.3959300154	 0.137486
H	-2.598003322	 0.9160344538	-0.4576439167	 0.140414
H	-3.1318912991	 1.7929712915	 1.0636548519	 0.125016
