20
gdb 119794	5.02448	0.90309	0.82731	0.8594	81.31	-0.2281	0.0311	0.2592	1458.4243	0.171766	-403.159344	-403.150846	-403.149901	-403.192902	32.251	
C	-0.1183448764	 1.4686641793	 0.0764353603	-0.391753
C	-0.011549212	-0.0424701745	 0.0078790798	-0.035846
O	-1.3482838516	-0.574676207	 0.001653923	-0.26352
C	-1.4510285864	-1.9045392536	-0.0429840544	 0.414205
N	-0.4681681003	-2.7188230433	-0.0779339214	-0.314895
C	-1.012308875	-4.0591546948	-0.054270876	 0.013863
C	-1.716193107	-4.4691777269	 1.2133621453	-0.284239
C	-2.5307749085	-3.9828789123	 0.0341075388	-0.053331
C	-2.8503685559	-2.4978229818	-0.0257755083	-0.345808
H	 0.8819076631	 1.9118231176	 0.0833435848	 0.121241
H	-0.6633696011	 1.8612598085	-0.7867639792	 0.127944
H	-0.6409477199	 1.7826909387	 0.9845175585	 0.127521
H	 0.5073878331	-0.3781337051	-0.8963042569	 0.120005
H	 0.5296262104	-0.4591609106	 0.8640729382	 0.11943
H	-0.4825441346	-4.7976125038	-0.6444470972	 0.088698
H	-1.7741726668	-5.5282532654	 1.4427870491	 0.11055
H	-1.6021447882	-3.8228353029	 2.0789833062	 0.110621
H	-3.1739233251	-4.6863714518	-0.479547137	 0.088304
H	-3.4273165432	-2.122287949	 0.8261405138	 0.124815
H	-3.3988555046	-2.218300281	-0.9329960477	 0.122194
