17
gdb 68381	3.01059	1.54104	1.2221	3.5496	67.71	-0.264	0.0068	0.2708	1014.2312	0.136677	-458.993286	-458.985928	-458.984983	-459.024846	29.632	
O	-0.1356694029	 1.4274579544	-0.0992620884	-0.478809
C	 0.0062775017	 0.0451233001	 0.0570790916	 0.404531
C	 0.1701456479	-0.5875398331	 1.4760930355	-0.307166
C	-0.6170531822	-1.7761949502	 0.8792304113	 0.108712
C	-1.2960880985	-0.7771516864	-0.0857016626	-0.278531
O	 0.2639311215	-2.6627648889	 0.1618226488	-0.232133
C	 1.1327543674	-2.1027570892	-0.7196439391	 0.416979
O	 1.8942932468	-2.791408081	-1.3376916052	-0.33001
C	 1.0623748723	-0.5781924586	-0.8589836731	-0.422764
H	 0.7369007253	 1.8359680346	-0.0730753512	 0.280829
H	 1.1732844701	-0.7866240939	 1.8621371724	 0.107162
H	-0.4251862188	-0.0475914003	 2.2153764206	 0.118639
H	-1.2184550836	-2.4162351925	 1.5206305225	 0.10162
H	-2.1330670039	-0.2674997849	 0.3960901898	 0.122093
H	-1.5874564164	-1.1371446622	-1.075178326	 0.113441
H	 0.8522360172	-0.3474601631	-1.9088099577	 0.146266
H	 2.064188556	-0.1879582548	-0.6397465094	 0.129142
