15
gdb 25659	5.9796	0.77401	0.68865	2.0034	86.33	-0.1947	-0.0055	0.1892	1591.35	0.112827	-416.828238	-416.819437	-416.818492	-416.863598	31.012	
C	-0.15228047	 1.4239052295	 0.0477599955	-0.511975
C	-0.0446926648	-0.0247717256	 0.0095497371	 0.25948
C	 0.0436863383	-1.2291588871	-0.0202441949	-0.135868
C	 0.1635287212	-2.621820723	-0.0589559552	 0.170005
C	 1.1844594168	-3.4962642153	-0.2703740593	-0.217252
N	 0.7309165947	-4.8024193959	-0.2055568716	-0.325009
C	-0.5392821666	-4.669568076	 0.0493541219	 0.449863
N	-1.4516501177	-5.662422113	 0.2796072941	-0.59812
O	-0.9800990898	-3.403068006	 0.1548222809	-0.215497
H	 0.5137513774	 1.8561670132	 0.8033165039	 0.152336
H	 0.1027879392	 1.8730217151	-0.9190241784	 0.151345
H	-1.1748718073	 1.7295120315	 0.2951734834	 0.15521
H	 2.2179159883	-3.262469219	-0.4706022307	 0.124615
H	-1.1567678925	-6.5641326463	-0.0631712679	 0.273205
H	-2.408832727	-5.4284119819	 0.0630121913	 0.267663
