22
gdb 120266	3.03508	1.07167	0.9411	1.8275	82.47	-0.2283	0.0766	0.3049	1370.0469	0.193201	-404.298284	-404.28868	-404.287736	-404.333198	35.472	
C	-0.8324721254	 1.6306756087	 0.5486604442	-0.384915
C	-0.5952646289	 0.1670565005	 0.218631275	-0.042686
O	-1.8193237912	-0.531817442	 0.3787216748	-0.256458
C	-1.7313978991	-1.9137692941	 0.1411514298	 0.108781
C	-2.9636376775	-2.690458132	 0.5659917834	-0.064395
C	-4.1336046889	-2.3028915151	-0.2432467725	-0.240202
N	-3.1826643554	-3.2652749613	-0.8275433637	-0.142377
C	-1.9865290521	-2.4703763809	-1.3052039785	 0.02333
C	-2.2128163442	-1.519327659	-2.4670046505	-0.407817
H	 0.095956502	 2.2004270956	 0.4462503325	 0.115172
H	-1.579196429	 2.0604548248	-0.1250833086	 0.126275
H	-1.1960104092	 1.7374447865	 1.5745763145	 0.128129
H	-0.2194637286	 0.0610445053	-0.8109678088	 0.090838
H	 0.1690641372	-0.2626866657	 0.8873472019	 0.089031
H	-0.8045995616	-2.3154211638	 0.5725431472	 0.069321
H	-3.0410696904	-3.3048090422	 1.4565815834	 0.092432
H	-5.0825170962	-2.7647680139	 0.0111270459	 0.119535
H	-4.2111146182	-1.2942512873	-0.634960397	 0.124383
H	-1.2173598144	-3.2012383285	-1.571144996	 0.080538
H	-2.8197812523	-0.655228031	-2.1870807931	 0.127476
H	-1.2569770292	-1.1424288118	-2.8456399136	 0.116591
H	-2.7138418772	-2.0460620431	-3.2860202805	 0.127015
