17
gdb 19430	4.0302	1.99324	1.65921	2.7173	68.56	-0.2247	0.0732	0.2979	824.2063	0.143711	-363.819107	-363.812515	-363.811571	-363.849642	26.465	
C	-0.1380196572	 1.482592491	 0.0374866285	-0.326625
C	 1.234494499	 0.8308752459	-0.0444548503	-0.342064
C	-0.0233343407	-0.0013073162	-0.0399672773	 0.505371
O	-0.3630869882	-0.7235821448	 1.1240298218	-0.298088
C	-0.3721391635	-2.1194067642	 0.8235209549	-0.088354
C	-0.6201807538	-2.2143758438	-0.6688720887	-0.051032
N	-1.7743135757	-1.3989336105	-1.0998362725	-0.335053
C	-0.4008293947	-0.854106182	-1.2104464946	-0.155335
H	-0.4364875967	 1.8967910813	 0.9938141496	 0.127069
H	-0.5155218182	 2.0172738343	-0.8272218718	 0.11498
H	 1.8033483754	 0.9263977774	-0.9642861464	 0.106159
H	 1.8291602023	 0.8137400228	 0.8618307348	 0.120901
H	 0.5934256723	-2.588990944	 1.0694690893	 0.091369
H	-1.1563877259	-2.5798913158	 1.4323254303	 0.114038
H	-0.3510963569	-3.1149597498	-1.2100775105	 0.093051
H	-2.0732158129	-1.7165482045	-2.0195222388	 0.230291
H	 0.0387642655	-0.6690283171	-2.1841555583	 0.093321
