15
gdb 49375	2.38691	1.40907	0.96599	4.9818	76.29	-0.2548	-0.0246	0.2302	1182.8383	0.111296	-416.78861	-416.779972	-416.779028	-416.822522	30.865	
N	 0.0612472045	 1.2830414774	 0.013708921	-0.410665
C	-0.02927926	 0.0210804592	-0.0656306091	 0.071546
N	-1.2436089856	-0.6453685043	-0.0148181792	-0.087338
C	-1.5095614483	-2.1026961762	-0.049414467	-0.169201
C	-3.0340491159	-1.7570291379	-0.004918913	-0.39475
C	-2.6001179612	-0.279934301	 0.0534878079	 0.439487
O	-3.1518868953	 0.7743997807	 0.1307931487	-0.315352
C	-1.0153701853	-2.800890137	-1.2238468314	 0.332967
C	-0.5958138932	-3.382186033	-2.1881938612	-0.441727
H	 1.0375473135	 1.5666871289	-0.0519820816	 0.233122
H	 0.8021653807	-0.6846897396	-0.1862059667	 0.107286
H	-1.1614255955	-2.6024592283	 0.8614215988	 0.124571
H	-3.5836752541	-2.0230347341	-0.9081166259	 0.152722
H	-3.5669462737	-2.1128737568	 0.8777474949	 0.145262
H	-0.2308993308	-3.8942146178	-3.0446445361	 0.212071
