20
gdb 102093	1.93439	1.51433	1.01009	2.3288	76.79	-0.2425	-0.0363	0.2062	1248.0921	0.168089	-440.254999	-440.244861	-440.243917	-440.290391	36.085	
C	-1.58252352	 0.2772879374	 0.0169907204	-0.246228
O	-0.7899700197	-0.8535258469	 0.3298154755	-0.251987
C	 0.5260745912	-0.5369017034	 0.7316369516	-0.037332
C	 0.5242814421	-0.0204174068	 2.1691911671	 0.141035
O	 1.3629446445	 0.7007542495	 2.6424213463	-0.240273
C	 1.3897299939	-1.8068579361	 0.6696348092	 0.30452
C	 2.8771388124	-1.5482904858	 0.7613847764	-0.459631
C	 0.7955339117	-3.0717561054	 1.18346372	-0.275158
N	 0.982203352	-2.8595098875	-0.2650792031	-0.361911
H	-1.1423041787	 0.8570222985	-0.8068752786	 0.121351
H	-2.5627101907	-0.0940670158	-0.2887101314	 0.138569
H	-1.7098405734	 0.9445974722	 0.8812857235	 0.121002
H	 0.9678126416	 0.230918848	 0.0772270058	 0.091265
H	-0.3302109234	-0.4128242925	 2.7675550094	 0.088891
H	 3.1339899044	-1.0000797219	 1.672163306	 0.139863
H	 3.4199788769	-2.4960229647	 0.7519759935	 0.128574
H	 3.2174677963	-0.9566011978	-0.095873874	 0.12055
H	 1.4414720154	-3.8240366079	 1.6275392971	 0.116417
H	-0.218078514	-3.0454986068	 1.5725182605	 0.11988
H	 0.0828131875	-2.6056821663	-0.6691770452	 0.240601
