16
gdb 29010	2.56375	1.56552	0.97285	4.0815	83.9	-0.2178	-0.0551	0.1627	1146.4962	0.126287	-400.830358	-400.822575	-400.82163	-400.862558	29.941	
N	-0.0528716002	 1.4116383445	-0.1137201771	-0.591898
C	 0.0106863444	 0.0275572513	-0.0444935497	 0.227639
C	-1.1855251747	-0.7117033881	-0.0448300807	-0.159276
C	-1.1696421165	-2.0955793727	-0.0177323625	-0.099271
C	 0.0397659405	-2.7993506379	 0.0154789193	-0.138379
C	 1.2227937315	-2.0856954884	 0.011401416	-0.155184
C	 1.2367185774	-0.6813425739	-0.0260741343	 0.136118
C	 2.5425636625	-0.0046690219	-0.0692199882	 0.079203
O	 3.6154349825	-0.5676594654	-0.011380076	-0.276946
H	 0.7136621729	 1.9330658105	 0.2788040485	 0.257498
H	-0.9481608175	 1.8108723747	 0.1232102595	 0.252867
H	-2.1317497754	-0.1784302217	-0.0629325524	 0.086018
H	-2.1115307045	-2.6351619502	-0.0157175031	 0.103425
H	 0.0459011881	-3.8827353806	 0.0409408689	 0.099815
H	 2.1854855514	-2.5845395168	 0.0304493056	 0.12621
H	 2.5146372476	 1.1021826667	-0.1788945236	 0.05216
