20
gdb 18054	3.30383	2.07308	1.52606	1.6752	73.76	-0.2393	0.0826	0.3219	896.2383	0.180584	-349.006566	-348.999643	-348.998699	-349.037636	27.58	
C	 0.00229603	 1.5584266337	 0.0797155872	-0.084112
O	 1.4398151037	 1.541880318	-0.0500139565	-0.297253
C	 1.3847847386	 0.1755585765	-0.5368755445	 0.160896
C	 2.5104227041	-0.7167897725	-0.0439248251	-0.227793
C	 2.3394557229	-1.1669298441	 1.4124449546	-0.189473
C	 0.933576733	-1.7390912196	 1.6363566578	-0.191173
C	-0.1236615028	-0.6460315648	 1.4265809346	-0.205087
C	-0.0505326842	 0.0167318555	 0.0357051294	-0.05741
H	-0.3253031254	 2.049611272	 1.0029380438	 0.100279
H	-0.4744560557	 2.0499495474	-0.7808944322	 0.089641
H	 1.3747552192	 0.1846993743	-1.6382256379	 0.06098
H	 2.5409402779	-1.6032735214	-0.692150404	 0.094572
H	 3.4601647747	-0.1888663163	-0.1909060407	 0.107437
H	 3.1057274636	-1.9089386247	 1.6607018382	 0.088793
H	 2.4935057768	-0.3136672585	 2.0847324212	 0.105824
H	 0.7616348534	-2.5756778231	 0.9442246986	 0.08919
H	 0.8409510404	-2.1480793742	 2.6484178934	 0.092134
H	-1.1306775544	-1.0442643854	 1.5912362812	 0.092307
H	 0.0333113511	 0.1186365923	 2.1977680656	 0.101911
H	-0.776553037	-0.4235221052	-0.6520615646	 0.068335
