14
gdb 69028	2.74053	1.37692	1.18154	2.749	70.83	-0.2628	-0.0497	0.2131	1046.7911	0.100084	-436.686433	-436.678472	-436.677528	-436.719245	29.443	
O	 0.1191744702	 1.370990528	-0.2335392093	-0.41711
C	 0.0573940103	 0.0318621353	-0.06791352	 0.29267
C	-0.345238456	-0.847262086	-1.20460229	-0.359192
C	-1.1961697064	-1.0352566834	 0.0215867332	 0.087486
C	-0.4190624394	-1.8667921512	 1.0505415944	-0.402617
C	 0.6155571059	-0.7146520712	 1.0985819933	 0.338413
O	 1.3664029584	-0.3357799339	 1.9558662423	-0.319474
C	-2.5755244091	-0.7211235227	 0.0884875834	 0.207262
N	-3.7012354026	-0.4551150287	 0.1582240675	-0.336253
H	 0.2520939656	 1.7767436386	 0.6343646601	 0.315146
H	-0.8104097814	-0.2854038939	-2.0090809795	 0.164101
H	 0.2874349958	-1.6674751781	-1.5361505769	 0.137731
H	-0.9157970112	-1.980280157	 2.0158920735	 0.157344
H	-0.06872541	-2.8400575058	 0.696844988	 0.134494
