19
gdb 75909	2.66309	1.44263	1.13437	2.8272	74.73	-0.2404	-0.0219	0.2186	1124.1683	0.158456	-423.043262	-423.034715	-423.033771	-423.076756	32.39	
C	-0.022799715	 1.6175232342	-0.0731655967	-0.39845
C	 0.0216357478	 0.0849972202	 0.0461517773	-0.177729
C	 0.7651352744	-0.5177147052	-1.163507508	 0.401412
O	 0.4490177025	-0.3579976143	-2.3136003774	-0.318646
C	 1.9775077698	-1.3096877531	-0.6631925	-0.326006
C	 2.2047943663	-0.8029131447	 0.7708985625	-0.296983
C	 0.7993571389	-0.4450688832	 1.2449686717	 0.417889
C	 0.4543342874	-0.1832709042	 2.642374172	-0.254281
O	 0.1389249461	-1.4431390333	 2.0408366539	-0.279802
H	 0.9812601048	 2.0529897588	-0.0308034233	 0.118785
H	-0.4704868935	 1.8969917561	-1.0301602779	 0.14406
H	-0.6149008365	 2.0563837681	 0.7345190702	 0.12031
H	-1.0001205403	-0.3078891923	 0.0640816327	 0.118241
H	 1.6931883807	-2.3700398245	-0.656009413	 0.143626
H	 2.8253392623	-1.2027633149	-1.3424683447	 0.128896
H	 2.6657110549	-1.5374628604	 1.4339225855	 0.119818
H	 2.8375106612	 0.0926301622	 0.7627529068	 0.112889
H	 1.2326498843	-0.2101309458	 3.4050344715	 0.111925
H	-0.4012923961	 0.4467341862	 2.883260107	 0.114045
