15
gdb 8661	2.56043	1.80675	1.40494	3.4694	62.26	-0.2802	-0.0593	0.2209	937.8406	0.114922	-399.8028	-399.793602	-399.792658	-399.836825	31.19	
C	 0.0514240368	 1.4291727563	 0.1409131488	-0.259309
O	 0.0711978278	 0.0128408561	 0.0193226627	-0.266714
C	 0.6195279476	-0.5113141002	-1.1713140016	 0.129729
C	 2.1117404847	-0.2273612253	-1.3718505576	-0.431492
C	 0.3651073999	-2.0393672712	-1.0302087216	 0.152519
O	 1.0932080168	-2.8801675609	-1.4705292974	-0.22491
C	-0.1614546955	-0.061122883	-2.3501736935	 0.256595
N	-0.7871660413	 0.2871890961	-3.2577503122	-0.329085
H	 1.0626810187	 1.8493213399	 0.2000326139	 0.123765
H	-0.4856775819	 1.895093131	-0.6948930299	 0.140338
H	-0.4769015467	 1.644078125	 1.0711855889	 0.145199
H	 2.6438353631	-0.4748989636	-0.449898863	 0.141505
H	 2.4927032128	-0.8602201431	-2.175495297	 0.163282
H	 2.2914961518	 0.818327686	-1.6270032806	 0.137858
H	-0.5607131147	-2.2598404033	-0.4628850799	 0.12072
