16
gdb 50323	3.78454	1.26353	1.05835	3.6691	73.68	-0.224	-0.0234	0.2006	1106.1815	0.125873	-437.899611	-437.892273	-437.891328	-437.931765	27.851	
O	-0.1225769263	-0.098601048	-0.4057673149	-0.319098
C	-0.0872323034	 1.0877456848	-0.1758274515	 0.159158
N	 1.0419607719	 1.7905889244	 0.1886588289	-0.094655
C	 0.9765916981	 3.2486685745	 0.312200645	-0.208211
C	 2.0443393672	 3.8115689713	 1.2271815998	 0.031955
O	 2.2260311658	 3.1965258346	 2.4879987542	-0.255137
C	 3.2571851921	 3.0201871326	 1.4677539798	 0.010469
C	 3.3448747117	 1.6804803329	 0.8532219532	-0.168105
C	 2.264479296	 1.1247126991	 0.2938529424	 0.037738
H	-0.9758847353	 1.7443258957	-0.2302398239	 0.083246
H	 1.1106361777	 3.7224117401	-0.6719139355	 0.124804
H	-0.019808311	 3.5219837348	 0.6748051913	 0.134596
H	 2.0964201266	 4.9018326247	 1.2200693249	 0.100363
H	 4.1856730483	 3.5339880329	 1.7030944746	 0.100395
H	 4.2712731896	 1.1238016039	 0.9087479901	 0.107639
H	 2.2360236609	 0.1172713516	-0.1004431883	 0.154842
