20
gdb 99481	2.39225	1.11462	0.80249	2.9873	83.17	-0.2425	0.0312	0.2737	1470.9673	0.168281	-403.156561	-403.14568	-403.144735	-403.193565	38.174	
C	 0.0347868083	 1.4839718855	 0.2284369079	-0.394514
C	 0.0697945465	-0.0289177512	 0.0149649267	-0.165681
C	 0.6401173062	-0.4408901459	-1.3670666018	-0.31117
C	 2.038297079	-0.0558243447	-1.5272541455	 0.325567
C	 3.1965741715	 0.250951125	-1.6440245913	-0.448575
C	 0.3509014713	-1.9451443876	-1.6119496909	 0.436289
O	-0.7875410605	-2.3654840327	-1.4988207938	-0.386726
N	 1.414975134	-2.7113629526	-1.9518083097	-0.327798
C	 1.2993353794	-4.1307526185	-2.2190695772	-0.337231
H	 1.0367201843	 1.9199074033	 0.1675444925	 0.126445
H	-0.5910301967	 1.9748436945	-0.5253361978	 0.116174
H	-0.3786918524	 1.7248226417	 1.2123533145	 0.116863
H	 0.6701999116	-0.5071152055	 0.7974608084	 0.103386
H	-0.9351302022	-0.4544478203	 0.0727613467	 0.133223
H	 0.0478395331	 0.0781794649	-2.1336104065	 0.133532
H	 4.2130950193	 0.5394482601	-1.7527101059	 0.201284
H	 2.3156230087	-2.2625970144	-2.0131171437	 0.254462
H	 1.892962949	-4.7188151252	-1.51017498	 0.126912
H	 0.2478823982	-4.3998173449	-2.112533016	 0.170652
H	 1.6305353814	-4.3706797417	-3.2354329267	 0.126908
