18
gdb 107982	2.76767	1.40714	1.36978	3.0543	72.11	-0.2528	0.0656	0.3184	1036.6437	0.147207	-438.982783	-438.974681	-438.973737	-439.015265	31.608	
O	-0.0048266009	 1.3740131403	 0.0040020582	-0.417646
C	 0.034962516	-0.0410024851	 0.0695067839	-0.18863
C	-1.3550805569	-0.6021492764	 0.1638258263	 0.302206
C	-2.436841467	-0.3370252331	 1.2211205231	-0.306021
C	-3.1494857401	-1.0668072386	 0.0811390121	-0.073704
N	-2.3628973429	-0.2820596492	-0.9909542288	-0.195388
C	-1.9882479459	-1.5800955981	-1.6984935165	-0.256523
C	-1.9213979969	-1.9960881683	-0.2303573165	 0.299724
O	-1.5324612887	-3.1802877814	 0.3661292102	-0.467723
H	-0.6829967703	 1.5943901948	-0.6467255224	 0.293165
H	 0.5596858815	-0.4738475371	-0.798094669	 0.090506
H	 0.6108564259	-0.3055387137	 0.9628121844	 0.120139
H	-2.3350402265	-0.8781279667	 2.1637116645	 0.110122
H	-2.7116039576	 0.7085906971	 1.3753059295	 0.113236
H	-4.2094105835	-1.2785225825	-0.0715390841	 0.082198
H	-2.7997060869	-1.98166548	-2.3145096446	 0.099378
H	-1.0589337735	-1.5239884962	-2.2727338489	 0.108526
H	-2.1367795458	-3.8799512358	 0.0936242286	 0.286436
