18
gdb 76773	2.37236	1.52803	1.12096	2.9911	73.12	-0.2393	-0.0403	0.199	1121.0296	0.145818	-439.054512	-439.045231	-439.044286	-439.088816	33.626	
C	-0.2765197435	 1.4481811956	-0.0740967034	-0.38407
C	-0.0341114508	-0.0562854658	-0.0333675711	-0.169427
C	 1.1585567968	-0.543979539	-0.9477425894	 0.046637
O	 1.639819424	 0.2968388644	-1.9566594902	-0.433693
C	 1.9987164948	-0.6839759054	 0.3284548456	 0.312099
O	 3.1830520831	-0.6509243238	 0.5178568485	-0.313893
C	 0.7638858889	-0.5580579035	 1.1946851747	 0.23282
C	 0.6619110602	-0.1881192599	 2.6278488122	-0.296028
N	 0.3701701674	-1.5607191819	 2.1976386859	-0.355438
H	 0.6436108229	 2.0046537063	 0.1289134234	 0.121414
H	-0.6341167345	 1.7543688126	-1.0608540799	 0.134096
H	-1.022009877	 1.7452588631	 0.6702481278	 0.112577
H	-0.9607031887	-0.6071609414	-0.2189933088	 0.080109
H	 0.9242097121	-1.5408342753	-1.3508860344	 0.108879
H	 2.5619897529	 0.4918949243	-1.7499110207	 0.299882
H	 1.5741150518	-0.075158909	 3.2065974443	 0.141777
H	-0.1588694578	 0.4622501803	 2.9197163986	 0.123528
H	-0.6377326528	-1.6987514816	 2.1424625269	 0.23873
