19
gdb 89595	4.44869	0.9234	0.87931	3.262	79.66	-0.2462	0.0272	0.2735	1366.2398	0.159283	-382.046885	-382.038118	-382.037174	-382.08075	32.765	
C	-0.3252152945	 1.5366981864	 0.1671251112	-0.404584
C	 0.0507189869	 0.0723765764	 0.0367931384	 0.083059
C	 1.0945978723	-0.3881743707	-1.0227250496	-0.338053
C	 1.8775700913	-0.9773567898	 0.1514294368	 0.361051
C	 2.4713213073	-2.3675169759	 0.1885422827	-0.441985
C	 3.7012187119	-2.4638300954	-0.6003695957	 0.260743
N	 4.6661805661	-2.5218291519	-1.233141685	-0.305619
C	 2.2007492412	 0.070696994	 1.1351585607	-0.281405
N	 0.8516533094	-0.5382852145	 1.1732902484	-0.189874
H	 0.5478868195	 2.1943150841	 0.2100657492	 0.119721
H	-0.9283470517	 1.8463777246	-0.6929413889	 0.124043
H	-0.918072528	 1.6980963612	 1.0732193008	 0.131891
H	-0.8618102381	-0.5246204001	-0.0425091089	 0.091117
H	 0.7032682719	-1.1355253197	-1.7159769702	 0.114249
H	 1.6112771157	 0.385420962	-1.5975025905	 0.114533
H	 2.687325723	-2.647024427	 1.2252774216	 0.162232
H	 1.751682925	-3.1005317331	-0.1957002158	 0.153747
H	 2.8017688454	-0.2064159844	 1.9958991615	 0.125871
H	 2.3302147854	 1.0995344838	 0.8118695434	 0.119264
