16
gdb 12742	2.63233	2.21349	1.82361	1.0044	59.6	-0.2458	0.0593	0.305	805.9634	0.129345	-420.82857	-420.820858	-420.819914	-420.861062	28.711	
O	 0.3449837521	 1.1741772128	-0.560369094	-0.429377
C	 0.0554954116	-0.0939407795	-0.0298355389	 0.051188
C	 0.1619106686	-0.3338140564	 1.5126061977	-0.281469
C	-1.3005282381	-0.8242608336	 1.5265483299	 0.066392
O	-2.2157598972	 0.2665082198	 1.7795802254	-0.293078
C	-2.4709941685	 0.4627917993	 0.3678100479	-0.144043
C	-1.4240267553	-0.6001861397	-0.0090344807	 0.3282
O	-1.7823944511	-1.6144768842	-0.8942833313	-0.479186
H	-0.0250194965	 1.8406550768	 0.0282031782	 0.289561
H	 0.668445074	-0.8045365994	-0.5930790273	 0.097458
H	 0.9098908775	-1.0803961466	 1.7899089103	 0.111571
H	 0.3150228348	 0.5667852014	 2.1130281962	 0.109456
H	-1.5686079445	-1.7426416925	 2.0516437541	 0.086294
H	-3.488706336	 0.1613073537	 0.091553351	 0.110074
H	-2.2972115101	 1.497408698	 0.0449379504	 0.089352
H	-1.5143270913	-1.3512904198	-1.7820104189	 0.287608
