17
gdb 38073	3.23728	1.85988	1.33714	1.16	82.73	-0.2123	-0.028	0.1843	947.014	0.137968	-384.678889	-384.672263	-384.671319	-384.709619	27.428	
C	 0.036473291	 1.5309534146	 0.0477488225	-0.345196
C	 1.3422293942	 0.7262360127	-0.0558045094	-0.205553
C	 1.9631649543	 0.4132334247	 1.2727118155	-0.064442
C	 1.1744294873	-0.3634422365	 2.0471216807	-0.223919
C	 0.0001619148	-0.7512485819	 1.2796570606	 0.299769
C	-0.9013959568	-1.7305350318	 1.1747212805	-0.288591
C	-1.5193368273	-1.6542285328	-0.2053488433	-0.129757
O	-0.7376458965	-0.6867652522	-0.9342290609	-0.312573
C	-0.0066291319	 0.0318824051	 0.014420126	 0.39926
H	-0.1731526848	 2.082396353	 0.9595937947	 0.110737
H	-0.2866256354	 2.0071985844	-0.872896215	 0.120337
H	 1.9487412601	 0.8311078849	-0.9473953236	 0.100053
H	 2.9320723615	 0.8001253481	 1.5687811698	 0.10384
H	 1.4029773619	-0.69900111	 3.0499721171	 0.104242
H	-1.1306136418	-2.5154661553	 1.8831283773	 0.106579
H	-1.4782437869	-2.6144809832	-0.7359079319	 0.11598
H	-2.5733421337	-1.3313374839	-0.1869802209	 0.109234
