14
gdb 133739	1.77194	1.70989	1.05887	1.9843	57.05	-0.2751	0.0181	0.2932	1115.5019	0.09408	-568.13846	-568.1291	-568.128156	-568.173465	32.434	
C	 0.0395798859	 1.3977255615	 0.1090097925	-0.244638
O	-0.0242902093	-0.0187020964	 0.0183511505	-0.235817
C	 0.6441994652	-0.5737062006	-1.091001524	-0.227364
C	 1.2529925506	-1.8482003262	-0.7193162871	 0.318017
C	 1.7604432443	-2.8927527565	-0.4184388935	-0.39598
C	-0.3452544502	-0.7698023774	-2.259865907	 0.277375
F	-0.8788965048	 0.4100118281	-2.6166622986	-0.078556
F	 0.2833239479	-1.2720816574	-3.3289107188	-0.068264
F	-1.341825193	-1.5880120272	-1.9327814098	-0.059316
H	 1.0816005297	 1.7471168084	 0.1380869558	 0.116076
H	-0.4807613208	 1.8884753784	-0.7205553023	 0.128707
H	-0.4490238184	 1.665123292	 1.0478732853	 0.140148
H	 1.4234441253	 0.106602538	-1.4678341216	 0.121287
H	 2.2061140576	-3.8191462348	-0.1502412114	 0.208326
