19
gdb 114886	3.83812	1.09572	0.96503	2.4514	77.88	-0.2424	0.0009	0.2434	1257.3709	0.160203	-422.989858	-422.981743	-422.980798	-423.022881	31.098	
O	 0.1417837037	 1.18393319	-0.3425152027	-0.418738
C	 0.0186993991	-0.1401918781	 0.1387179335	-0.065989
C	-1.4429720415	-0.5437464341	 0.2234868242	 0.033378
O	-2.0783098468	-0.4981746591	-1.1048844464	-0.346436
C	-2.7255740654	-1.8002524097	-0.8661811797	 0.120225
C	-2.4749551694	-3.0284542016	-1.7534299403	-0.251865
C	-2.0010260528	-4.0969468493	-0.7070085838	-0.244211
C	-1.3245363608	-3.2431357066	 0.367892013	-0.207696
C	-1.8046625059	-2.0074940017	 0.289845797	 0.1703
H	-0.3320420376	 1.2104868481	-1.1824600178	 0.295623
H	 0.5508180515	-0.8602669464	-0.5003743693	 0.089145
H	 0.4732811697	-0.1640909492	 1.135416347	 0.110503
H	-1.9825976407	 0.1199116032	 0.911858608	 0.09026
H	-3.7889478805	-1.6322385345	-0.650051366	 0.08176
H	-3.3418252068	-3.3479652237	-2.338067009	 0.098239
H	-1.6542473831	-2.8058549147	-2.4426386715	 0.118113
H	-2.8484655979	-4.675769423	-0.315717902	 0.113275
H	-1.3062099963	-4.8224702768	-1.1421269718	 0.110974
H	-0.5141695785	-3.6045649428	 0.9896175876	 0.10314
