18
gdb 68916	2.42206	1.86568	1.28978	2.101	72.15	-0.2376	0.0254	0.2631	1008.6151	0.147238	-439.082284	-439.073948	-439.073003	-439.114701	32.33	
C	-0.110302323	 1.4571571816	 0.0140280444	-0.450902
C	 0.1032532686	-0.0308072944	-0.0106630761	 0.379377
C	 1.4835730905	-0.6345555318	-0.1818420788	-0.407003
C	 0.7278449402	-0.7769079105	 1.1270800241	 0.303111
O	 1.1409305149	 0.0041154249	 2.2152560999	-0.464244
C	 0.1150657617	-2.117396268	 1.4998506571	-0.227673
N	-0.8053056257	-2.6850994615	 0.5258053185	-0.269511
C	-1.2438451548	-1.9541839565	-0.4062308074	 0.118371
O	-0.9560677943	-0.6667379135	-0.7138851788	-0.261459
H	 0.6859949257	 1.9414777671	 0.5801935838	 0.137403
H	-0.1224681813	 1.8574720212	-1.0043436015	 0.126133
H	-1.06607162	 1.6969478919	 0.4897961196	 0.129992
H	 1.5792362616	-1.5099143789	-0.8163319474	 0.127714
H	 2.3221215451	 0.0530200874	-0.203653845	 0.119048
H	 1.9663736307	-0.3660516986	 2.54788184	 0.286568
H	 0.8975855437	-2.8607408228	 1.7080920378	 0.101578
H	-0.4296100657	-1.9719267143	 2.4415605493	 0.128144
H	-1.9693563575	-2.3424667433	-1.1185745794	 0.123354
