12
gdb 131314	5.66081	1.36176	1.0977	5.8091	60.85	-0.2383	0.0115	0.2498	977.8832	0.080851	-464.985299	-464.978938	-464.977994	-465.015937	24.48	
O	-0.0583412481	 1.2772247418	 0.0105169681	-0.403686
C	 0.0412696208	-0.0485454082	 0.0023899416	 0.500049
N	 1.1558411122	-0.7297556154	-0.0083448972	-0.365959
N	 0.685199807	-2.0371529119	-0.0127300633	 0.007964
C	 1.1039626279	-3.3407428269	-0.0227869098	-0.003882
N	 0.0465421426	-4.123262106	-0.0200249879	-0.219381
N	-1.1124565612	-3.3491992274	-0.0089196828	-0.359007
C	-0.6704773608	-2.1203253073	-0.0047727715	 0.518238
N	-1.1027516131	-0.8046901272	 0.0048725934	-0.461011
H	 0.8382522989	 1.6394897009	 0.0069598641	 0.331348
H	 2.1345197404	-3.6510651769	-0.031014581	 0.154379
H	-2.0480088366	-0.4646460455	 0.0140409964	 0.300948
