18
gdb 24107	6.40776	0.74911	0.71017	1.3173	85.26	-0.2057	0.0323	0.238	1570.9928	0.148041	-364.811843	-364.803187	-364.802243	-364.846162	32.164	
C	 0.0006175765	-1.2058133308	-0.0035363384	-0.438213
C	-0.034033773	-0.0044359851	 0.0036900268	 0.294572
C	-0.0218702319	 1.4515299007	 0.011758746	-0.343758
C	 1.4179894371	 2.0183900124	-0.002165137	-0.178772
N	 1.4461773012	 3.4656158832	 0.0057674541	 0.045622
C	 1.3896004025	 4.2711961729	-1.1075120346	-0.10536
C	 1.3353350746	 5.5808929668	-0.6920084644	-0.16542
C	 1.3535053686	 5.5727502383	 0.7303233521	-0.165437
C	 1.4181864184	 4.2583908525	 1.1292775248	-0.105343
H	 0.0116303895	-2.2675806731	-0.009632549	 0.1997
H	-0.5647391326	 1.8410005504	-0.8575894565	 0.142663
H	-0.5438203463	 1.8311178129	 0.8981198497	 0.142673
H	 1.9645903422	 1.6498085512	 0.8699856071	 0.132081
H	 1.943660974	 1.6597583356	-0.8911744135	 0.132079
H	 1.4016416137	 3.838162224	-2.0956528759	 0.112849
H	 1.3023125292	 6.4468087609	-1.3352561666	 0.093604
H	 1.3370449932	 6.4312380629	 1.3840776369	 0.093605
H	 1.4553558133	 3.8140609243	 2.1117616283	 0.112856
