19
gdb 40276	3.17135	1.40709	1.09715	1.985	79.69	-0.2273	0.0162	0.2435	1132.2626	0.160157	-423.00401	-422.996145	-422.995201	-423.036512	30.909	
C	-0.4368026763	 1.4971931878	 0.0974702659	-0.318195
C	 1.0648706044	 1.3747663109	 0.1146981138	-0.317419
C	 0.1841564711	 0.1276349415	 0.0338351971	 0.393349
O	 0.0306304753	-0.5832535874	 1.2307769525	-0.280982
C	 0.8775488244	-1.6885819394	 1.4125130943	-0.005819
O	 0.374336649	-2.8506492135	 0.824394631	-0.223705
C	 0.6834770961	-3.0313484058	-0.5433134583	-0.140102
C	 0.3552727325	-1.9090849327	-1.4891107446	-0.114084
C	 0.1665748577	-0.6105577069	-1.2494000822	-0.080614
H	-0.9311578141	 1.7419561117	 1.0299802511	 0.130204
H	-0.9212483099	 1.8810708815	-0.7932085274	 0.117803
H	 1.6265447634	 1.6726347337	-0.7634837297	 0.115996
H	 1.5684790955	 1.5347397396	 1.0609686158	 0.123427
H	 1.8950165945	-1.46516658	 1.0480854002	 0.080369
H	 0.8951168916	-1.8750276839	 2.488963294	 0.112912
H	 1.7590595854	-3.2679482468	-0.6552617964	 0.102185
H	 0.1396271314	-3.9335116919	-0.8450688221	 0.121215
H	 0.3425196641	-2.2283533328	-2.5301327471	 0.092653
H	 0.0131376138	 0.0358923542	-2.1114930882	 0.090805
