16
gdb 110170	2.56779	1.2376	0.9123	1.6267	74.18	-0.2587	0.0058	0.2646	1266.8281	0.12185	-437.827297	-437.818238	-437.817294	-437.861626	32.303	
C	-0.1256269348	 1.3310849522	-0.1037737838	-0.251048
O	 0.3790664128	 0.0049974175	-0.0076554905	-0.242161
C	 0.7068461812	-0.545614749	-1.2421721625	-0.02071
C	 1.1559282136	-2.0291856088	-1.1460435168	-0.08349
O	 0.0563475724	-2.4075228803	-2.0557371892	-0.258643
C	-0.4262024839	-1.1160984155	-2.0909904147	 0.423578
N	-1.4548403717	-0.6366391091	-2.6211872842	-0.546942
C	 2.4614181872	-2.3959690103	-1.6444339811	 0.319919
C	 3.5552623762	-2.6841565841	-2.0488398001	-0.426541
H	 0.6198683556	 2.0046362951	-0.5520020681	 0.111607
H	-1.0430494462	 1.3667571779	-0.7019619681	 0.151244
H	-0.3371332251	 1.6589134243	 0.9156865511	 0.133204
H	 1.3980545563	 0.0899423125	-1.8130540467	 0.109746
H	 0.9638949364	-2.4376050668	-0.1502709441	 0.135567
H	-2.0112715605	-1.3550433646	-3.0888661706	 0.233429
H	 4.5211523404	-2.945989501	-2.4056896606	 0.211241
