21
gdb 109861	2.2479	1.41538	1.02773	0.5728	78.21	-0.2305	0.0721	0.3026	1226.9747	0.181299	-424.187594	-424.178083	-424.177139	-424.221437	36.445	
C	-0.3351618643	 1.5856790436	 0.1402724105	-0.408823
C	-0.0771858967	 0.0835657641	 0.0783936131	 0.018926
C	 0.3672318677	-0.5418841856	-1.2546797337	-0.161526
C	 1.7404134266	-0.0369582987	-1.6490836642	-0.320348
C	 1.6425921094	-1.0792808283	-0.5877379957	 0.393951
O	 2.336246435	-2.2657387374	-0.7548160979	-0.462575
C	 1.2170099846	-0.5086994555	 0.7670402789	-0.071527
C	 2.1822472041	 0.3869233414	 1.5208883042	-0.103753
O	 1.5531238117	 0.7702347957	 2.739860467	-0.423537
H	 0.4714416506	 2.1634254871	-0.3221249461	 0.108191
H	-1.2601557085	 1.8390531696	-0.388684407	 0.108534
H	-0.4277891681	 1.91543323	 1.1790825627	 0.129265
H	-0.9549954307	-0.4399683484	 0.4686037733	 0.072734
H	-0.2856954921	-1.0110318409	-1.9811605448	 0.084024
H	 2.099349141	-0.4313165355	-2.5944635543	 0.118447
H	 2.0594678602	 0.9820335058	-1.4449045792	 0.102738
H	 1.8594597388	-2.9592799841	-0.2847905074	 0.281293
H	 0.9224896574	-1.3196277188	 1.4439112823	 0.070447
H	 3.1146020657	-0.1691276443	 1.7106828947	 0.092313
H	 2.446024603	 1.2693610438	 0.9198401101	 0.085277
H	 2.1387111146	 1.3765273762	 3.2028329434	 0.285949
