20
gdb 107180	3.38318	1.19911	1.11789	3.7659	78.47	-0.2113	0.0672	0.2784	1188.9653	0.170862	-403.0627	-403.0544	-403.053456	-403.095507	33.036	
C	-0.105424075	 1.5237689688	 0.139759776	-0.379063
C	 0.1062659435	 0.0112132779	-0.011664492	-0.305951
C	 0.7740688047	-0.3804016287	-1.2962096272	 0.363907
N	 1.517375762	-1.6700711974	-1.431116883	-0.423065
C	 2.1869209973	-0.3620539377	-1.7267420135	-0.110128
C	 1.8020752373	 0.0942162033	-3.1533495258	-0.137314
C	 0.8125050509	-0.8080555847	-3.8504653153	 0.139197
O	 0.8255543451	-2.1872471357	-3.9364605868	-0.429395
C	 0.3096823763	 0.057228552	-2.717716339	-0.192419
H	 0.8468156909	 2.0613277352	 0.0924320815	 0.120863
H	-0.7521085773	 1.9186781753	-0.6493941065	 0.126919
H	-0.577051566	 1.7525833082	 1.0998168974	 0.117789
H	 0.7168468564	-0.356929113	 0.8238285944	 0.094534
H	-0.8606225043	-0.5052916507	 0.0628085286	 0.112612
H	 1.8064250881	-1.9527483961	-0.4951195291	 0.22811
H	 3.0860441644	-0.081407591	-1.1928057869	 0.09709
H	 2.3321946805	 0.8939037875	-3.6568899105	 0.087665
H	 0.5171800176	-0.3871546868	-4.8107886617	 0.102753
H	 1.0837825817	-2.4830222796	-3.0448997541	 0.298633
H	-0.4453575539	 0.8216190232	-2.8588166164	 0.087263
