24
gdb 118433	1.98322	1.09181	0.78053	3.5157	87.42	-0.2293	0.0372	0.2665	1597.763	0.215505	-405.592764	-405.581381	-405.580437	-405.629975	40.423	
C	 0.2408335694	 1.4728266062	 0.0747098219	-0.379835
C	 0.0534220261	-0.0458883378	 0.1063447716	-0.168428
C	-1.4215726102	-0.4507469111	-0.0099684247	-0.157787
N	-1.6274817334	-1.8983551523	 0.0455554273	-0.068435
C	-1.8926277561	-2.4924627671	 1.3503685304	-0.165811
C	-3.3621681533	-2.4071816816	 1.7806135843	-0.37351
C	-1.5376732094	-2.6008721556	-1.1291877584	 0.397369
C	-1.7580191358	-4.1074891375	-1.0711787003	-0.505095
O	-1.2858376857	-2.0446049035	-2.1876961449	-0.384876
H	 1.2982020933	 1.7432277948	 0.1505819933	 0.114961
H	-0.1447943777	 1.8985551428	-0.8579755696	 0.123098
H	-0.286442521	 1.9591952724	 0.9036603893	 0.109759
H	 0.5976806365	-0.5106369552	-0.7220610302	 0.124858
H	 0.4739672146	-0.4538649102	 1.0346800867	 0.089089
H	-2.0047625048	 0.0075993823	 0.7971566257	 0.092159
H	-1.8227165701	-0.0927973832	-0.9608151272	 0.134539
H	-1.5664956504	-3.5343914169	 1.3475574845	 0.118051
H	-1.2623443738	-1.981359102	 2.0880751267	 0.111328
H	-3.4931659308	-2.835273549	 2.7797760798	 0.11783
H	-3.707009506	-1.3692022551	 1.8108101849	 0.127046
H	-4.0070928987	-2.9537997397	 1.0859086863	 0.125712
H	-2.6914004599	-4.379417479	-0.5700622681	 0.13215
H	-1.7818919011	-4.4689636262	-2.098704784	 0.146587
H	-0.9386651716	-4.6088813557	-0.5447836554	 0.139242
