20
gdb 79066	2.12246	2.01113	1.67798	1.6293	81.97	-0.2108	0.0045	0.2153	972.1892	0.171592	-365.982698	-365.974829	-365.973885	-366.014368	31.987	
C	-0.0419243479	 1.637414399	-0.030339707	-0.426174
C	 0.1063611574	 0.1226788264	-0.0077429279	 0.003137
C	 0.7684804844	-0.6299751991	-1.1481504927	-0.079212
C	 2.2695951691	-0.7569511623	-1.0368969549	-0.073309
C	 3.0209730276	 0.1520334008	-0.1306613039	-0.086272
C	 2.3925104268	 0.1820710485	 1.0449624894	-0.127858
C	 1.1287120507	-0.6375537833	 0.9358130083	 0.26472
C	 0.5972869916	-1.2770417481	 2.1968465956	-0.48923
N	 1.3998147744	-1.6293952165	-0.2172664089	-0.163191
H	 0.9177693374	 2.1354585731	-0.1870633153	 0.120561
H	-0.7143662916	 1.9398917762	-0.8409166715	 0.115125
H	-0.4713807233	 2.0085165851	 0.9071791779	 0.111953
H	-0.8708276052	-0.3433547962	 0.1605893108	 0.08532
H	 0.2632573797	-0.9432194231	-2.0584858779	 0.087831
H	 2.7711991678	-1.2499184298	-1.8647284853	 0.089738
H	 3.9100572034	 0.697017675	-0.420396727	 0.104372
H	 2.6385420013	 0.7943106823	 1.903872655	 0.100479
H	 0.2957945914	-0.5138720291	 2.9232093029	 0.113601
H	-0.2717314761	-1.9041080725	 1.9769456257	 0.122546
H	 1.361797981	-1.9082860065	 2.6612907668	 0.125865
