17
gdb 87604	3.45979	1.36308	1.27153	1.9294	73.8	-0.2305	-0.0128	0.2177	1032.8082	0.137042	-417.964667	-417.957301	-417.956357	-417.996302	29.325	
O	 0.0621108383	 1.3817962661	-0.0196186273	-0.434854
C	 0.0766799524	-0.0073594579	 0.0344345442	 0.087637
C	-0.416188469	-0.7482133543	 1.2502679972	-0.38113
C	-1.2332736702	-0.7591779268	-0.0317816251	 0.3207
N	-2.4175759516	 0.0744926261	-0.0748243729	-0.259428
C	-3.3075155255	-0.5796358464	-0.7109934336	 0.018267
N	-2.9972221209	-1.8939657778	-1.1699474341	-0.129113
C	-1.9586391921	-1.8468303822	-2.2400343812	-0.247078
C	-1.5504610455	-2.0032965266	-0.823226842	-0.130638
H	-0.8663867951	 1.6484068379	 0.0266564191	 0.296691
H	 0.925331919	-0.4216979646	-0.5025932408	 0.10668
H	 0.0799293597	-1.6718955692	 1.5334263987	 0.115883
H	-0.8116046733	-0.1593380058	 2.070461484	 0.129686
H	-4.3035425855	-0.1940929133	-0.9039338074	 0.133231
H	-1.9644660922	-2.7080221304	-2.9000866671	 0.130353
H	-1.7849850743	-0.888425261	-2.7215141221	 0.13419
H	-1.2176625543	-2.9698503137	-0.4590063397	 0.108921
