21
gdb 87637	2.63951	1.19586	1.03631	2.7647	83.49	-0.2364	-0.0176	0.2188	1273.3725	0.180164	-387.094059	-387.084481	-387.083537	-387.128689	35.862	
C	-0.014211178	 1.5102589215	-0.1891076082	-0.407795
C	 0.1031766996	 0.0074223375	-0.0671036074	-0.046838
C	 1.4580917745	-0.6664524128	-0.0966355945	-0.357627
C	 0.6598522127	-0.6384560525	 1.1733821228	 0.33438
C	 1.0156570528	 0.0787064344	 2.4903236182	-0.436698
C	 0.2454898873	-1.0386680744	 3.2184841552	 0.401769
O	-0.1293021532	-1.1905158218	 4.3450548917	-0.298531
C	 0.0507146574	-1.8504643851	 1.9217049699	-0.175934
C	-1.3624456646	-2.3288073718	 1.6089493622	-0.407728
H	 0.8256675692	 2.0155829033	 0.2987806518	 0.117372
H	-0.0190449263	 1.8195252887	-1.23994826	 0.120627
H	-0.9374743784	 1.8807957663	 0.2707781528	 0.118445
H	-0.6990386863	-0.5438708716	-0.5530488648	 0.085747
H	 1.5572884065	-1.6116582485	-0.622108023	 0.10972
H	 2.3367905919	-0.030249754	-0.1579719182	 0.109395
H	 2.0825408542	 0.0911976427	 2.7401385397	 0.128467
H	 0.6139370167	 1.0851299272	 2.6444275418	 0.12968
H	 0.7442389612	-2.7031949773	 1.9242614982	 0.100414
H	-2.0682986716	-1.4927140596	 1.5900659464	 0.12152
H	-1.4077909178	-2.8331297595	 0.6381558235	 0.118234
H	-1.6978315577	-3.0357162326	 2.3734671221	 0.135381
