15
gdb 28525	3.23159	1.43269	0.99443	1.0537	74.01	-0.1883	-0.0108	0.1775	1116.4808	0.115605	-450.202577	-450.194703	-450.193759	-450.234509	30.8	
N	 0.0475521748	 1.3394752299	 0.1675029526	-0.560405
C	 0.0226264537	-0.0331234562	 0.055787217	 0.405864
N	-1.164798188	-0.635240558	 0.109864651	-0.322718
C	-1.1479355116	-1.9728472045	 0.0542695453	-0.052638
C	 0.0074357992	-2.7334380749	-0.0571336808	 0.161296
N	 0.0342856558	-4.1310595308	-0.185281342	-0.603656
C	 1.1863601987	-1.9697450536	-0.1082595985	 0.392012
O	 2.3607682131	-2.6295220171	-0.2121795065	-0.427389
N	 1.2116923831	-0.6525623553	-0.0560050394	-0.402466
H	 0.8725379769	 1.7876638248	-0.1972270554	 0.253564
H	-0.8273024472	 1.7928849359	-0.0427765724	 0.256929
H	-2.1164986063	-2.4691666776	 0.0987941654	 0.099619
H	-0.7283079291	-4.5912798769	 0.2939198062	 0.244673
H	 0.9201639113	-4.5274031876	 0.0989784264	 0.256236
H	 3.0518355056	-1.9526788881	-0.2146047189	 0.299079
