20
gdb 80968	2.21175	1.52988	1.43539	1.9696	81.63	-0.2198	-0.0231	0.1966	1070.4583	0.168324	-403.079402	-403.070301	-403.069357	-403.113024	34.191	
C	 0.0733601938	 1.5067137492	 0.2242611698	-0.344103
N	 0.1479465892	 0.0662848418	 0.0406768638	-0.115925
C	-1.0072792638	-0.7830694906	 0.5117264128	-0.061962
C	-0.0270782968	-1.9801923811	 0.4016643875	-0.247936
C	 0.7309109859	-0.831301862	 1.1331589551	 0.32528
C	 2.1645406026	-0.7590436786	 1.5672106662	-0.519403
C	-0.5614738209	-0.6505270346	 2.0062928895	-0.092022
C	-0.7720783763	 0.5399290356	 2.900381315	 0.087302
O	 0.0839356441	 0.9907117366	 3.6253458908	-0.259165
H	 1.0863276102	 1.92026041	 0.2569892342	 0.129809
H	-0.4358745418	 1.9375289454	-0.6447547263	 0.122575
H	-0.4590087948	 1.8595429734	 1.1220390265	 0.109515
H	-2.0074548267	-0.6863942712	 0.0865014615	 0.084461
H	-0.2556512853	-2.8756062217	 0.9823072504	 0.092823
H	 0.3219384756	-2.1920565262	-0.608398179	 0.107582
H	 2.8286010614	-0.8305928247	 0.7001069908	 0.127312
H	 2.3632012632	 0.1768656516	 2.0963780782	 0.146546
H	 2.3965978276	-1.5826742413	 2.2497354125	 0.126445
H	-0.8242391242	-1.5259160103	 2.6193485532	 0.10408
H	-1.8123099928	 0.9417579687	 2.9259370974	 0.076787
