22
gdb 119876	2.93033	1.05651	0.81161	0.9573	84.73	-0.2406	0.0388	0.2794	1491.2449	0.194435	-404.383253	-404.373514	-404.37257	-404.41846	35.479	
C	-0.1239036463	 1.4821155242	 0.0200837094	-0.391419
C	-0.0045187247	-0.0296824667	 0.0073489279	-0.036591
O	-1.3348266769	-0.5729717323	 0.0599513267	-0.271181
C	-1.429324703	-1.9066870706	 0.0525430006	 0.424737
N	-0.4419471717	-2.7090268545	 0.0046320396	-0.319553
C	-0.9817937989	-4.0747535831	-0.025689818	-0.160799
C	-2.4799180078	-3.9737370218	 0.3651651853	-0.230681
C	-2.827713101	-2.4990370099	 0.0689098838	-0.082836
C	-3.7958989961	-1.8319487854	 1.0478226327	-0.401514
H	 0.8715846107	 1.93433887	-0.018864241	 0.120631
H	-0.6971105901	 1.835786861	-0.8417692091	 0.126825
H	-0.6237607038	 1.8270660815	 0.9298062319	 0.127027
H	 0.4924795554	-0.3972900808	-0.8967651908	 0.118539
H	 0.5655699356	-0.4058997124	 0.8635715874	 0.118856
H	-0.8517623926	-4.4882638239	-1.0352400674	 0.100931
H	-0.4127579269	-4.7201943867	 0.65136396	 0.103179
H	-3.1147686764	-4.683589583	-0.1705303768	 0.099019
H	-2.6012758562	-4.1670603793	 1.4370182324	 0.102979
H	-3.2367916048	-2.4001340623	-0.947182357	 0.091944
H	-3.4227513506	-1.9038106196	 2.0751286387	 0.117147
H	-3.926315759	-0.773014519	 0.8094419478	 0.128674
H	-4.7773076049	-2.3149884053	 1.0117362559	 0.114085
