20
gdb 73007	2.77766	1.49308	1.19533	2.334	78.76	-0.2325	0.0672	0.2997	1107.4793	0.170807	-403.081836	-403.07343	-403.072486	-403.114693	32.102	
C	-0.0521565633	 1.5483189714	 0.0563600315	-0.492849
C	 0.055545704	 0.0560919274	-0.0411253911	 0.263836
C	-0.6529026201	-0.8090427808	-1.0877716544	-0.310541
C	-0.9802893573	-1.7856642896	 0.0696443303	-0.154115
N	-0.3386317474	-0.8940568957	 1.1011718109	-0.224161
C	 1.0558627247	-0.7498691991	 0.677861708	 0.267258
C	 2.0502658715	-1.81356138	 0.2125986579	-0.152808
O	 3.0641249411	-1.2629250673	 1.079967379	-0.278194
C	 2.1544236979	-0.2798509163	 1.6238407241	-0.162333
H	 0.5191694026	 2.0312676153	-0.7455842039	 0.124784
H	-1.0941884953	 1.8741856307	-0.0308409178	 0.12478
H	 0.3351616493	 1.9109097026	 1.0127152109	 0.131277
H	-1.5425202361	-0.33039299	-1.5025933492	 0.112576
H	-0.0375602218	-1.1769112249	-1.9148581927	 0.103421
H	-2.0469599918	-1.8814403546	 0.278807975	 0.114094
H	-0.542324238	-2.7879837314	 0.0192219771	 0.105602
H	 1.7942935899	-2.8462597689	 0.4855447173	 0.106222
H	 2.3482806755	-1.7831807225	-0.8432505781	 0.105065
H	 2.5251605308	 0.7429381503	 1.4822018946	 0.102409
H	 1.940517614	-0.4491770166	 2.6860880806	 0.113677
