16
gdb 20212	3.34482	2.807	2.20699	1.7234	62.22	-0.2368	0.0826	0.3195	685.7536	0.133734	-383.725728	-383.720068	-383.719124	-383.755334	23.048	
C	-0.0333340212	 1.5568770079	-0.0933917669	-0.095917
O	 1.3124239275	 2.0090098865	 0.0821155557	-0.265836
C	 2.0581410852	 0.9937655977	 0.7453854488	 0.064121
C	 1.8142962833	 1.034188458	 2.2603320776	-0.088884
O	 0.5434576584	 0.3983202879	 2.4512443264	-0.26238
C	 0.3646221524	-0.5186399003	 1.3981800247	 0.09336
C	-0.0054267552	 0.0404332402	 0.0390390108	-0.11113
C	 1.4223996392	-0.3509769613	 0.3521289679	-0.131679
H	-0.6874102305	 2.0143406989	 0.6604624881	 0.109446
H	-0.3711332121	 1.8686628857	-1.0873922815	 0.104968
H	 3.1091758214	 1.1089199853	 0.4725524627	 0.086957
H	 2.6008470262	 0.4831306297	 2.7986297965	 0.091068
H	 1.7527701925	 2.0542266081	 2.646545799	 0.11881
H	-0.0165822256	-1.4833489256	 1.7151560765	 0.098535
H	-0.6181668232	-0.5610140522	-0.622617176	 0.093684
H	 1.9752853917	-1.1457152165	-0.1299169201	 0.094876
