17
gdb 107806	2.77729	1.68454	1.36375	3.2198	66.49	-0.244	0.0586	0.3027	968.2637	0.13585	-458.887928	-458.880304	-458.87936	-458.919881	30.11	
O	-0.0921428122	 1.4622531166	 0.0069930054	-0.423517
C	 0.0079069807	 0.0668634333	 0.2277137061	-0.179573
C	-1.3229883794	-0.6030620258	 0.0649679218	 0.354752
O	-2.3397778147	-0.2222280677	 1.0555633879	-0.335453
C	-2.967734818	-1.4757263013	 0.7637503074	 0.090068
C	-2.9435754604	-1.6699242033	-0.7535958032	-0.183209
C	-1.7724611696	-2.1050597039	 0.1427022976	-0.221764
C	-2.1333870174	-0.4760271968	-1.2579972139	 0.12123
O	-2.7302886038	 0.7722249628	-1.495854551	-0.448635
H	-0.6896325773	 1.6036487482	-0.7384604011	 0.293627
H	 0.7192425664	-0.4122718087	-0.4670170901	 0.091143
H	 0.3901220081	-0.0714637545	 1.2443740867	 0.119662
H	-3.7294636268	-1.8521770636	 1.4325289934	 0.11853
H	-3.6489225101	-2.2938325507	-1.286452372	 0.099786
H	-1.258448544	-3.0463126316	 0.2680008999	 0.111314
H	-1.5314337297	-0.7364084313	-2.1319668781	 0.0999
H	-3.1198576818	 1.0299452982	-0.6473500267	 0.292139
