19
gdb 24428	3.36188	1.53575	1.09727	2.0349	82.3	-0.1706	0.0527	0.2233	1098.0458	0.164121	-382.115178	-382.107819	-382.106875	-382.146663	30.064	
C	-0.0095605191	 1.5264448337	-0.0148422462	-0.197149
C	 1.440794891	 2.0492818481	 0.0163719557	-0.159292
N	 2.1975151607	 1.6626872733	 1.2107806717	-0.397727
C	 1.9321308838	 0.3370685979	 1.6259757771	 0.252008
C	 0.9511499786	-0.4531743765	 1.0655653911	 0.270838
C	-0.0354133988	-0.0158736788	 0.0332385434	-0.337906
N	 1.0314519409	-1.6905856462	 1.6680360323	-0.343222
C	 2.033740154	-1.6856114989	 2.6060985815	-0.077807
C	 2.6193137236	-0.4402745842	 2.6033939511	-0.269983
H	-0.5543656172	 1.9272853949	 0.8487057135	 0.097434
H	-0.5161314986	 1.8886417445	-0.9157380693	 0.09196
H	 1.97279722	 1.6596796778	-0.8630690684	 0.105488
H	 1.4564816143	 3.1406791101	-0.0603641863	 0.09508
H	 2.066871862	 2.3277850319	 1.9644517827	 0.221743
H	-1.048529162	-0.3668899491	 0.2696526762	 0.097022
H	 0.204678169	-0.4227880386	-0.9607600406	 0.102876
H	 0.4517646326	-2.4803083599	 1.4461811976	 0.251945
H	 2.2538406908	-2.5660551881	 3.1880603312	 0.11117
H	 3.4461263546	-0.121810362	 3.2194209456	 0.085523
