18
gdb 96714	3.47244	0.94593	0.7901	1.7912	77.53	-0.2425	-0.0728	0.1697	1455.463	0.144394	-439.06819	-439.058462	-439.057518	-439.104166	33.805	
C	-0.4123398682	 1.3836166808	 0.0135177425	-0.311174
N	-0.1261008356	-0.0416375232	 0.0447460981	-0.304243
C	 0.5931488315	-0.5996452493	-0.8314624753	 0.323722
O	 0.8819958008	-1.9261390079	-0.8035252963	-0.261572
C	 0.3214446504	-2.6784869155	 0.2498827663	 0.16414
C	-0.9331230609	-3.4526102694	-0.0236734692	-0.278752
C	 0.4056270424	-4.1591171573	 0.0859156878	-0.299485
C	 1.2778964624	 0.0025018355	-2.0330769069	 0.100074
O	 1.2093811357	 1.166887603	-2.3338340326	-0.241215
H	 0.498031062	 1.9922335494	 0.0456376408	 0.136039
H	-0.9535297914	 1.6743793473	-0.8936873777	 0.136277
H	-1.0295547785	 1.6280047341	 0.8818029419	 0.118851
H	 0.456035052	-2.2187960355	 1.2217972844	 0.117495
H	-1.6551821423	-3.5557987287	 0.7781702198	 0.123077
H	-1.3613407445	-3.360170625	-1.0150798927	 0.123528
H	 0.8479518536	-4.5254013119	-0.8335192496	 0.126816
H	 0.6157589138	-4.7603800201	 0.963004011	 0.121306
H	 1.8583943266	-0.7328673564	-2.6275134824	 0.105116
