15
gdb 84649	2.24938	1.90513	1.50274	3.6295	65.76	-0.2449	-0.0573	0.1876	921.5237	0.113171	-457.756154	-457.74888	-457.747936	-457.787769	28.215	
O	 0.1108582996	 1.3763676043	-0.1619550089	-0.43112
C	 0.0376453756	-0.0411115917	-0.0090577085	-0.038904
C	 0.7439122164	-0.5089148953	 1.2477842966	-0.119817
C	 0.0964176379	-0.6341436387	 2.408398631	-0.044886
C	-1.352581156	-0.3139699109	 2.5222074951	-0.016075
O	-1.7563809659	 0.9707171525	 2.0068363476	-0.250131
C	-2.1671420584	-0.1985083504	 1.2848996614	-0.068053
C	-1.4334568695	-0.4864936558	 0.00427365	 0.397603
O	-1.9646942192	-1.0636837746	-0.9129347504	-0.31076
H	-0.2945533638	 1.7516480625	 0.632551949	 0.295217
H	 0.497881696	-0.466108623	-0.9036450479	 0.114697
H	 1.8131091497	-0.685435306	 1.1846342387	 0.11956
H	 0.6115579898	-0.9376104878	 3.3142657306	 0.111432
H	-1.8627233951	-0.5913381689	 3.441316048	 0.117626
H	-3.2321172471	-0.4174748563	 1.2923572575	 0.123608
