18
gdb 66764	2.54933	2.24673	1.83512	1.6677	77.4	-0.2375	0.0062	0.2437	855.4312	0.149862	-364.763362	-364.756841	-364.755896	-364.793732	27.676	
C	-0.0560103903	 1.5025549323	 0.0153077439	-0.520113
C	 0.0024778281	 0.0072219896	 0.0083176529	 0.375754
C	 0.7101582914	-0.8302353747	-1.1022849454	-0.132295
C	 2.0536762911	-1.2063098552	-0.5323509162	-0.094239
C	 1.9623125759	-1.2161959523	 0.8050034901	-0.094235
C	 0.55339611	-0.8471730466	 1.1924102405	-0.1323
C	-0.5293310527	-1.8447911635	 0.702854198	-0.050257
C	-0.4280759093	-1.8338605724	-0.7792081101	-0.050258
N	-1.3011017058	-0.8336954234	-0.0869499118	-0.211856
H	 0.9535536469	 1.9221872565	 0.0866321899	 0.126856
H	-0.5233591692	 1.8772088041	-0.9013097534	 0.127629
H	-0.6428674092	 1.8643499259	 0.8659965643	 0.127606
H	 0.6756900552	-0.4295337295	-2.1156224172	 0.070957
H	 2.9202946389	-1.480066922	-1.1219499786	 0.098834
H	 2.7409752088	-1.4994694912	 1.5028845547	 0.098835
H	 0.3810509871	-0.4613626129	 2.1974228066	 0.070956
H	-1.0233670779	-2.6278988567	 1.2657247588	 0.094064
H	-0.8401861389	-2.6081297579	-1.415466967	 0.094063
