19
gdb 93701	3.05674	1.23042	1.13568	1.8443	77.31	-0.2491	0.0423	0.2914	1158.735	0.15715	-422.995268	-422.985986	-422.985042	-423.029213	35.302	
C	 0.3789176014	 1.25471913	-0.0945346867	-0.427808
C	-0.0771826362	-0.2087786264	-0.0534157446	 0.20346
C	 0.3715507323	-1.0181119224	-1.3133981698	-0.287172
C	 1.5689854808	-1.8309275752	-0.8192209106	 0.10777
O	 2.7273584021	-1.0204373774	-0.9733202047	-0.429513
C	 1.1881064302	-2.0459173293	 0.6470594159	-0.105785
O	 0.5950113576	-0.8307316976	 1.0654978762	-0.278101
C	-1.5301727003	-0.2993266891	 0.1414063205	 0.337239
C	-2.7211373983	-0.367885344	 0.2899096441	-0.490062
H	 1.4549507037	 1.2827024094	-0.2797310391	 0.13624
H	-0.1426104364	 1.7986271537	-0.887141305	 0.118786
H	 0.1632105989	 1.7381506311	 0.8612152503	 0.129714
H	-0.4271929577	-1.6838642978	-1.6450806788	 0.117229
H	 0.6502841438	-0.3654386037	-2.141839814	 0.126842
H	 1.6800201393	-2.781331738	-1.3601101459	 0.069311
H	 3.4513134911	-1.4300247929	-0.489027292	 0.284088
H	 0.4880682444	-2.8930501001	 0.7367547436	 0.094212
H	 2.0495325322	-2.2443380038	 1.2948746972	 0.098654
H	-3.7719991389	-0.4287655866	 0.4305804232	 0.194895
