19
gdb 91079	3.43185	1.41509	1.2308	1.6332	80.82	-0.2351	0.0014	0.2366	1074.3764	0.160355	-385.853039	-385.845595	-385.844651	-385.884745	29.962	
C	-0.0052818603	 1.5376080841	 0.2150438349	-0.410909
C	 0.0162358552	 0.0306981659	 0.0182520347	-0.047375
C	 1.1233956569	-0.629026809	-0.89664808	-0.262276
C	 1.2199061709	-1.8284919449	 0.1128254002	-0.079589
C	 2.4678739842	-2.3043164911	 0.8351710005	 0.007499
O	 3.3981389508	-1.2921072098	 1.2036450814	-0.256631
C	 2.4237569843	-1.713132809	 2.1988677916	 0.01311
C	 1.264512939	-0.7662402042	 2.2484223123	-0.236287
C	 0.595392912	-0.862827555	 1.094107535	 0.234415
H	 0.9773049375	 1.9000413702	 0.5333713568	 0.125333
H	-0.2754905883	 2.051257488	-0.7137577943	 0.116669
H	-0.7358499856	 1.8263816399	 0.9782840455	 0.119162
H	-0.9660626591	-0.3296690494	-0.3122832627	 0.083368
H	 0.8362445217	-0.8665195396	-1.9231929316	 0.101844
H	 2.0419799284	-0.0390557024	-0.8813231378	 0.127222
H	 0.5837129019	-2.6652817468	-0.1927137182	 0.079069
H	 2.89819701	-3.2827298924	 0.6385458403	 0.090621
H	 2.8585513744	-2.1862083245	 3.0743043084	 0.096245
H	 1.1573586362	-0.0001143799	 3.0065446431	 0.098511
