21
gdb 109082	4.15247	1.02142	0.9303	1.6724	85.1	-0.2332	0.0231	0.2562	1348.0145	0.183732	-387.093032	-387.084604	-387.08366	-387.126485	32.205	
C	-0.3336492336	 1.5313832747	-0.1086158127	-0.374821
C	 0.1943600446	 0.0975631318	 0.0760089546	-0.287995
C	 0.8612728034	-0.4608341254	-1.1471094136	 0.345185
C	 2.1385047405	-0.8445589734	-1.2521440857	-0.200598
C	 2.4843921699	-1.3977305876	-2.604389816	-0.113232
C	 2.3760107396	-2.9359500453	-2.7444995975	-0.074301
O	 1.0249816232	-2.8304009898	-3.2395886102	-0.294228
C	 1.1196702971	-1.3896347172	-3.3452750569	 0.12398
C	 0.1108509091	-0.6555149632	-2.4550259408	-0.325842
H	 0.479378592	 2.2171831862	-0.3674012121	 0.119694
H	-1.0824736807	 1.5843947722	-0.9049720727	 0.120942
H	-0.8019881197	 1.8925322695	 0.8119464634	 0.114494
H	 0.897596899	 0.0723420227	 0.9159553385	 0.101098
H	-0.6470762648	-0.5527219162	 0.354606286	 0.106372
H	 2.8591853883	-0.7960692558	-0.4415724576	 0.084544
H	 3.3539336388	-0.9343330201	-3.0772772359	 0.076656
H	 3.0500744322	-3.372988307	-3.4940955044	 0.092034
H	 2.4336303396	-3.5216715593	-1.8196574086	 0.099931
H	 1.1042878796	-1.0701809756	-4.3932217543	 0.067744
H	-0.7943163947	-1.2637946345	-2.3331498382	 0.116985
H	-0.2049835935	 0.3011684433	-2.8918296955	 0.101359
