14
gdb 128644	2.78259	1.6179	1.02969	2.3241	68.31	-0.2414	-0.0583	0.1832	1078.7569	0.102845	-470.035801	-470.028216	-470.027271	-470.068184	27.439	
C	-0.0320471347	 1.3897132937	-0.0130230593	-0.23929
O	 0.025238052	-0.0421806094	 0.037576222	-0.220965
C	 0.6442628705	-0.5803283199	 1.0736510469	 0.351741
N	 1.1820961753	 0.1327455189	 2.0118330779	-0.357879
C	 1.7958940938	-0.5409527527	 3.0349208625	 0.079079
N	 1.8985811325	-1.8265639513	 3.1685052835	-0.199442
N	 1.3267837287	-2.5433302607	 2.1723203897	-0.265852
C	 0.6624630795	-2.0691860723	 1.0567191393	 0.3603
O	 0.1785730235	-2.790286855	 0.2103173971	-0.364937
H	 0.9752813318	 1.8126112859	-0.0408975555	 0.146799
H	-0.5755825874	 1.6238590878	-0.9275460781	 0.145488
H	-0.5557301699	 1.78331011	 0.8616899469	 0.146851
H	 2.2436140477	 0.0614158791	 3.8162253973	 0.137755
H	 1.3999377367	-3.5480366841	 2.2647266498	 0.280352
