17
gdb 71569	3.01693	1.67149	1.48923	2.2764	71.71	-0.2335	-0.0053	0.2282	927.1901	0.137064	-421.807508	-421.800519	-421.799574	-421.838527	28.665	
O	-0.1262006193	 1.4029903838	-0.0587471754	-0.480836
C	-0.0194572464	 0.0229218189	-0.0743098881	 0.425273
C	 0.4694223795	-0.8010703753	-1.2785600876	-0.314072
C	-0.2941529951	-1.9588307678	-0.5437062174	-0.1717
C	-1.2776923769	-0.8723196689	 0.0683923651	-0.069441
C	-1.1269267537	-0.8650949245	 1.6004134452	-0.2551
C	 0.3978352049	-0.7358460134	 1.2824270466	-0.238109
C	 0.6351907462	-2.1069539687	 0.660725676	 0.461631
O	 1.3503999767	-3.0116639255	 0.9930393783	-0.347372
H	 0.7519005739	 1.780956017	 0.0634133282	 0.285827
H	-0.0414526504	-0.4898389406	-2.1939594509	 0.114115
H	 1.5405759755	-0.9311457815	-1.4648058835	 0.106641
H	-0.6304223652	-2.8507784589	-1.0650024823	 0.089982
H	-2.207494617	-0.6807020178	-0.4645832943	 0.084141
H	-1.5313561403	 0.0538908986	 2.029543373	 0.121293
H	-1.4511308141	-1.7309935614	 2.1851140875	 0.108355
H	 1.1250173616	-0.3479608441	 1.9932859296	 0.079371
