21
gdb 115665	2.29744	0.98224	0.74453	1.975	88.08	-0.2405	0.0298	0.2703	1609.5876	0.180442	-387.051118	-387.040552	-387.039608	-387.089216	36.288	
C	 0.0495742217	 1.6253970935	 0.0078073428	-0.388055
C	 0.0921100425	 0.0949085964	 0.064888162	-0.19022
C	 0.6322676606	-0.5223148206	-1.2183344145	-0.035903
C	 2.1541991794	-0.4210859943	-1.4585619132	-0.076566
O	 2.3175008351	-1.8523069026	-1.3981461934	-0.279966
C	 0.889341412	-2.0654973069	-1.2408611184	-0.082903
C	 0.5394854656	-2.8530676462	-0.0716812609	 0.112999
C	 0.2412520654	-3.5170749081	 0.8884796568	 0.057272
C	-0.1124311041	-4.323853112	 2.0468530785	-0.499109
H	 1.0463000772	 2.0478894059	-0.1616164222	 0.117895
H	-0.5992482555	 1.9753110361	-0.8029070049	 0.114598
H	-0.3311497401	 2.0448748813	 0.9439047899	 0.115498
H	 0.7091959748	-0.2319078324	 0.9101544473	 0.10931
H	-0.9136982814	-0.2984543097	 0.2556109745	 0.102711
H	 0.033048594	-0.1947916601	-2.0727932266	 0.076753
H	 2.4608251783	-0.0153283625	-2.4306627589	 0.097696
H	 2.7221427409	 0.0860497675	-0.6674491601	 0.099951
H	 0.4801043663	-2.5478778657	-2.1395276142	 0.095215
H	-1.1988957149	-4.3624722059	 2.1830621592	 0.149961
H	 0.2436567362	-5.3539772901	 1.9361398956	 0.152552
H	 0.323208946	-3.9170175438	 2.9659132606	 0.15031
