21
gdb 111065	2.95784	1.12429	0.96229	1.9467	79.72	-0.2479	0.0748	0.3227	1312.3804	0.181892	-424.160027	-424.150765	-424.149821	-424.194433	34.462	
C	 0.0485789127	 1.3075465085	-0.3136308635	-0.241555
O	-0.0695367791	 0.0894338716	 0.3892727718	-0.261716
C	-1.3028222259	-0.5428704672	 0.2007266338	 0.141099
C	-1.5438704727	-1.4496352466	-1.050973597	-0.103962
C	-0.5086975717	-2.4391613812	-0.441509841	-0.277252
C	-1.4069888936	-1.9840650567	 0.7621030141	 0.273941
C	-1.2873021151	-2.4049575728	 2.2031255728	-0.207374
O	-1.4160423361	-3.8101773586	 2.3772566532	-0.414082
C	-2.6266046922	-2.1592015479	-0.1921788123	-0.256871
H	 1.0187639492	 1.7387673701	-0.0559554566	 0.128014
H	 0.002318678	 1.1610570733	-1.4026978579	 0.109568
H	-0.7427700244	 2.0177263193	-0.027590703	 0.106601
H	-2.1304982566	 0.1368306198	 0.4568159143	 0.058205
H	-1.6308399864	-1.1442062353	-2.0940437786	 0.070351
H	-0.6092690929	-3.4835316039	-0.7507888299	 0.0849
H	 0.5312124487	-2.1132206266	-0.4238292219	 0.107501
H	-0.3372845251	-2.0315449676	 2.6166907132	 0.099409
H	-2.0964575414	-1.9566210065	 2.7910171111	 0.109108
H	-0.6918034426	-4.2270304533	 1.8992485549	 0.283616
H	-3.5283028602	-1.5880668282	 0.0498462482	 0.088638
H	-2.8661210724	-3.1860753303	-0.4731826055	 0.10186
