18
gdb 29589	2.86272	1.21796	0.96366	2.2215	83.94	-0.2018	0.045	0.2468	1247.7956	0.147151	-364.820562	-364.811432	-364.810488	-364.854697	34.057	
C	-0.2233596014	 1.4684330589	 0.0696221664	-0.512237
C	-0.0622695161	-0.0205521949	 0.0105086339	 0.197626
C	 0.0223075472	-0.7942606705	-1.1240895641	-0.16293
N	 0.1651946902	-2.1061609797	-0.7442147721	-0.2457
C	 0.1732961551	-2.1880240625	 0.6234662948	-0.173078
C	 0.034548266	-0.9148425395	 1.1257167195	 0.205304
C	 0.0006263298	-0.5400913326	 2.5865238581	-0.476241
C	-1.2941865053	-0.0250587696	 3.0370828496	 0.326184
C	-2.3572679264	 0.401893852	 3.4016584459	-0.473746
H	 0.6303140547	 1.9528222155	 0.5606381827	 0.118536
H	-0.3079110555	 1.8950585089	-0.9341238554	 0.114554
H	-1.1170370722	 1.7535929221	 0.6353535723	 0.138362
H	-0.0079125328	-0.5151706761	-2.1656718612	 0.113801
H	 0.2491453462	-2.8856213377	-1.3715648873	 0.259985
H	 0.273663458	-3.1357790268	 1.1286985689	 0.115928
H	 0.266057345	-1.4154750137	 3.1918843932	 0.129476
H	 0.7698098798	 0.2148531025	 2.8022617227	 0.132483
H	-3.2978658023	 0.7733601338	 3.7243110023	 0.191693
