19
gdb 39475	2.3525	2.13197	1.5325	1.9803	74.51	-0.241	0.0061	0.247	934.2491	0.162448	-423.037347	-423.030409	-423.029465	-423.068309	28.713	
C	 0.0031226834	 1.4954661924	 0.1520860942	-0.222328
C	 1.3801845634	 2.1508195146	-0.0523258249	-0.051534
O	 1.8164888048	 2.3124667644	-1.3998608321	-0.282924
C	 1.8843889277	 1.1319405206	-2.1990088908	 0.148195
O	 1.9202558268	-0.0462991439	-1.4342052216	-0.24737
C	 0.5748469526	-0.5385315206	-1.3118860731	 0.045739
C	-0.0217333612	-0.03806232	 0.0156549208	-0.205688
C	-0.1207685212	 0.0285882139	-2.5258873168	-0.094571
C	 0.6331599589	 0.9891120747	-3.0451988799	-0.095283
H	-0.3284330437	 1.7499156892	 1.1664746007	 0.097712
H	-0.7132097564	 1.9585574564	-0.5350353591	 0.109635
H	 1.346864736	 3.1754035939	 0.3305556301	 0.101909
H	 2.1347551311	 1.6017013624	 0.5275921824	 0.098145
H	 2.8189742469	 1.2085481237	-2.7646345487	 0.089598
H	 0.6260276765	-1.6332543054	-1.3160816951	 0.08567
H	 0.5616576857	-0.4867203676	 0.8284621635	 0.107598
H	-1.0490331502	-0.4092418791	 0.1213792171	 0.095283
H	-1.1117117604	-0.2770783225	-2.836829848	 0.10822
H	 0.4066574793	 1.6447505027	-3.8749389586	 0.111994
