16
gdb 20727	6.55592	1.20229	1.05578	1.8578	67.86	-0.2344	0.0196	0.254	1104.3734	0.131766	-379.945913	-379.937902	-379.936958	-379.978813	28.662	
C	 0.2037256492	 1.4918584894	-0.3309643401	-0.48949
C	 0.081442385	 0.0505541947	 0.0522380169	 0.355893
N	-0.6787142145	-0.7779702917	-0.6630947328	-0.284769
N	-0.5514672822	-1.9719533582	-0.0496627072	-0.235915
C	 0.2516220336	-1.9332212023	 1.0432004862	 0.350341
C	 0.5228048243	-3.168795377	 1.8448579433	-0.175902
O	-0.6158053098	-4.0199434186	 1.9222870984	-0.414753
C	 0.6849797921	-0.6267718348	 1.1417001545	-0.399173
H	 1.2408071652	 1.7591540541	-0.5621597383	 0.126922
H	-0.4076845422	 1.6940262748	-1.2128702618	 0.13925
H	-0.1279860135	 2.1521374021	 0.4779467386	 0.125548
H	-1.068666522	-2.7690674815	-0.3807214112	 0.273644
H	 1.2995842799	-3.7795645261	 1.3697843234	 0.132372
H	 0.8993989835	-2.8859961542	 2.8376803117	 0.111148
H	-1.3107013999	-3.5335231287	 2.3793445211	 0.288378
H	 1.3447559314	-0.2189421321	 1.8916317373	 0.096506
