15
gdb 129877	4.22758	0.99315	0.84946	3.8799	74.29	-0.2112	0.0008	0.212	1310.5973	0.112976	-412.943042	-412.934637	-412.933693	-412.976834	30.692	
N	-0.1553305557	 1.3420157311	-0.2747018776	-0.592387
C	-0.0963687394	-0.0289094135	-0.0406576052	 0.327342
C	-0.9267644516	-1.0444614156	-0.4675268345	-0.177615
N	-0.4096159418	-2.1538148476	 0.1299983841	 0.082481
C	-0.8919873816	-3.5277051218	 0.0953820764	-0.292905
C	-1.0984634326	-4.0290759915	-1.2585683979	 0.304258
C	-1.2923824518	-4.4474322099	-2.366994849	-0.441901
N	 0.6541014556	-1.8499360729	 0.8818120284	-0.145416
N	 0.8529769935	-0.5612988142	 0.7773095664	-0.255661
H	 0.7091891943	 1.7895747957	 0.0025800895	 0.256202
H	-0.3902286854	 1.5858109419	-1.2271050073	 0.248305
H	-1.7829256355	-1.08089793	-1.1177212635	 0.14182
H	-0.1357866723	-4.114759166	 0.6242865167	 0.176105
H	-1.8258427354	-3.6014241919	 0.666819092	 0.157692
H	-1.4508543203	-4.8229455238	-3.3480101684	 0.211679
