18
gdb 23057	3.25591	1.06962	0.91156	1.9173	78.28	-0.2432	-0.0115	0.2317	1316.4717	0.145165	-439.015935	-439.006852	-439.005908	-439.049961	33.53	
C	-0.0532103693	 1.4288580616	-0.1994123655	-0.417315
C	 0.0297829742	-0.0592688038	 0.0122343289	-0.017209
O	 1.3373775942	-0.6493440265	-0.0051729445	-0.2869
C	 0.6245435175	-0.6579304386	 1.2192846395	 0.366124
C	 1.1030556654	-0.0060066687	 2.531735262	-0.329238
C	 0.5386364465	-1.2404056729	 3.3140114893	-0.330683
C	 0.2124388515	-1.8834455113	 1.9762151125	 0.34444
N	-0.2049751999	-3.0054588523	 1.5626863797	-0.243933
O	-0.4652934669	-3.8743050387	 2.6330317327	-0.386785
H	 0.7073717775	 1.9515232078	 0.3860108424	 0.128189
H	 0.0999379914	 1.6733876981	-1.2557307819	 0.134031
H	-1.0410600307	 1.8022169148	 0.0915148739	 0.12408
H	-0.7210695728	-0.6579826579	-0.5060012299	 0.104594
H	 2.1904467203	 0.0809719833	 2.5801811849	 0.125576
H	 0.6553851969	 0.959667782	 2.7756280044	 0.111981
H	 1.259195018	-1.7938524204	 3.9209810228	 0.133994
H	-0.3415977357	-1.0333320138	 3.9287642226	 0.129619
H	-0.7426739779	-4.6783118927	 2.1803170661	 0.309436
