22
gdb 22241	3.0569	0.74455	0.65832	1.476	82.4	-0.2396	0.0187	0.2584	1747.4793	0.190656	-441.446218	-441.434783	-441.433839	-441.483587	40.433	
C	 0.1274121333	 1.6109202808	 0.1113711148	-0.391382
C	 0.0381344689	 0.0851172509	-0.0118801952	-0.06742
C	-1.4219426323	-0.4253211262	 0.0002041192	-0.169576
C	-2.1655385122	-0.1690852552	 1.3068459096	-0.082118
O	-3.4173472935	-0.8348523491	 1.2188861199	-0.42171
C	 0.7493425723	-0.4572379361	-1.2376872688	 0.350981
C	 1.0114536277	-1.9375994086	-1.3425402259	-0.469686
N	 1.093799595	 0.3804894299	-2.1384900166	-0.169532
O	 1.720187735	-0.2532877878	-3.2269246399	-0.404998
H	 1.16595543	 1.9458313739	 0.0585336115	 0.12124
H	-0.4151714284	 2.1023392525	-0.7007767226	 0.127903
H	-0.292970187	 1.9489447851	 1.0627425798	 0.103881
H	 0.5449418875	-0.3625152445	 0.8577443048	 0.078991
H	-1.975369757	 0.0369092447	-0.8256631304	 0.112007
H	-1.4442226963	-1.5066042257	-0.1752754418	 0.109883
H	-1.5695165197	-0.5525575846	 2.152732281	 0.081472
H	-2.3048266764	 0.9099068761	 1.4682057676	 0.090867
H	-3.9254908079	-0.624790966	 2.007686743	 0.285141
H	 0.4287598956	-2.3797001324	-2.1577645349	 0.147063
H	 2.0637607546	-2.1141855811	-1.5839028249	 0.146113
H	 0.7630741067	-2.456199141	-0.4144478411	 0.117364
H	 1.935780504	 0.4932115443	-3.7953831891	 0.303517
