20
gdb 100710	3.01402	0.97277	0.87515	18.1183	75.49	-0.159	-0.0477	0.1113	1380.2088	0.170291	-477.380233	-477.370144	-477.3692	-477.415924	36.159	
C	 0.1233761478	 1.4602203934	 0.2305284396	-0.43244
C	 0.0283593355	-0.0598920386	 0.0414407224	 0.01615
C	-1.4039280919	-0.5491464313	-0.035061843	-0.220207
N	-2.1982473354	-0.1238334921	 1.216207445	-0.424671
H	-1.7959588351	-0.5589771707	 2.0493979436	 0.332118
H	-2.1019009832	 0.8896538423	 1.3269539301	 0.329502
H	-3.1900720167	-0.3640250947	 1.1641285421	 0.326667
C	 0.6909186509	-0.4970725648	-1.285276301	-0.016695
O	-0.0032574887	 0.0361310933	-2.3844653236	-0.468606
C	 2.1809131497	 0.0250490826	-1.3073679545	 0.354198
O	 2.8630547918	-0.2353974641	-0.3070765483	-0.481938
O	 2.4212537618	 0.6778484462	-2.350623179	-0.487301
H	 1.1768845839	 1.7269190415	 0.333963512	 0.194905
H	-0.2840897275	 1.9765958132	-0.643216987	 0.144823
H	-0.3781647345	 1.8370053323	 1.1378400818	 0.053565
H	 0.5793224585	-0.5720968542	 0.8394640335	 0.099864
H	-1.9178838161	-0.102374428	-0.8890582193	 0.183527
H	-1.4842148115	-1.6371931433	-0.0804302361	 0.155384
H	 0.6976269142	-1.600422408	-1.317256872	 0.052059
H	 0.7622535566	 0.503324835	-2.8225473661	 0.289097
