10
gdb 21909	5.87716	1.69768	1.31719	2.4159	51.9	-0.275	-0.1133	0.1616	811.8209	0.060622	-450.588878	-450.582814	-450.58187	-450.619329	22.169	
O	-0.1108492591	 1.3463168234	-0.2185095934	-0.376784
C	 0.0282411935	 0.0340786007	-0.0066769874	 0.500274
N	 1.2213549443	-0.4571025948	 0.0485132791	-0.187286
O	 1.3086187637	-1.8365995377	 0.2727547468	-0.240096
C	 0.1959476366	-2.6175355674	 0.4243591693	 0.431594
O	 0.3039536513	-3.7977854335	 0.6155608584	-0.317482
C	-1.0858723056	-1.8882403863	 0.3321380217	-0.081776
N	-1.1803160567	-0.6271462829	 0.1274570056	-0.22116
H	 0.7749937614	 1.7282799323	-0.2998701657	 0.322762
H	-1.9878744195	-2.485457584	 0.4491999658	 0.169954
