21
gdb 105882	2.13171	1.41892	1.31865	2.7785	78.25	-0.2451	0.0652	0.3103	1149.2122	0.182235	-424.199944	-424.190709	-424.189765	-424.233563	35.674	
C	 0.0102896762	 1.5339585943	 0.2338768603	-0.374674
C	 0.005779542	 0.0322128868	-0.0899607111	-0.307812
C	-1.3862352136	-0.5413629482	-0.0900047971	 0.306236
C	-2.0709246256	-1.0232896065	 1.1449715224	 0.040708
O	-3.3167973542	-0.4742022134	 1.5205733776	-0.432264
C	-1.9197624318	-2.0014682267	 0.0180242975	-0.192897
C	-2.9787698385	-1.7286119312	-1.0519639064	-0.274423
C	-2.4341631695	-0.2644013589	-1.1856620316	 0.093721
O	-3.3024753207	 0.825500392	-1.0201598175	-0.444603
H	 1.0200762324	 1.9503110433	 0.1661329006	 0.106792
H	-0.6360490735	 2.0832198656	-0.4571470505	 0.137363
H	-0.364554716	 1.7151758306	 1.2466142262	 0.118726
H	 0.4649903935	-0.1340242804	-1.0735463445	 0.096757
H	 0.630528096	-0.507441893	 0.6332790036	 0.092427
H	-1.401345424	-1.1903284326	 1.9891452362	 0.090939
H	-3.8654487012	-1.1806361897	 1.8782414951	 0.291117
H	-1.3586197656	-2.9218870147	 0.1344556171	 0.085561
H	-2.845521315	-2.3164569551	-1.9624684973	 0.102419
H	-4.02092295	-1.81017956	-0.7289664024	 0.087439
H	-1.947718884	-0.1232599695	-2.1554181427	 0.08572
H	-3.676026387	 0.7320847273	-0.1337056855	 0.290749
