18
gdb 89875	3.49156	0.97725	0.85886	3.4636	77.53	-0.2717	0.0251	0.2968	1343.1675	0.147272	-401.936957	-401.928347	-401.927402	-401.970604	32.522	
O	 0.6887041644	 0.5982585485	-0.9210829421	-0.428763
C	-0.0006925104	-0.2532550937	-0.0494801718	 0.174173
C	 0.167179147	-0.087400722	 1.4911220889	-0.343885
C	-1.3323821346	-0.3777904683	 1.6146230179	 0.359092
C	-1.945237082	-1.4762543084	 2.4155456806	-0.339011
C	-2.2624063001	-0.0228607081	 2.7589135561	-0.250346
C	-1.7153462683	 0.5669024956	 3.9467508239	 0.291877
N	-1.2550677188	 1.053072127	 4.8910016016	-0.343326
C	-1.5441053846	-0.1037481877	 0.121521601	-0.350081
H	 0.5225115126	 1.5080069722	-0.6511227452	 0.280087
H	 0.2570271064	-1.2683800767	-0.362479108	 0.102938
H	 0.865276494	-0.7516014028	 2.0048869563	 0.117237
H	 0.4054691925	 0.9484754817	 1.7590994955	 0.113418
H	-2.7557115057	-2.0538807168	 1.98351075	 0.129345
H	-1.3142141732	-2.0206447047	 3.1095925054	 0.140631
H	-3.2515497602	 0.3379891484	 2.4948633043	 0.131227
H	-1.8627712209	 0.9279150852	-0.0668625762	 0.103855
H	-2.1893588379	-0.7831367593	-0.440750618	 0.111531
