19
gdb 112591	3.4949	0.92115	0.85869	2.9221	77.79	-0.2305	0.0119	0.2423	1417.4369	0.157634	-419.189475	-419.179937	-419.178993	-419.224037	34.808	
C	-0.0391112848	 1.5184908684	-0.065980125	-0.382456
C	 0.0728345473	-0.0036304106	-0.099104391	-0.127485
N	 0.7597366461	-0.5154605851	 1.0716676914	-0.071036
C	 2.2085936329	-0.2760569261	 1.2069064471	-0.198866
C	 2.3709410376	-1.7107224986	 1.7741312335	 0.262477
O	 2.4446155173	-1.6623026512	 3.1787171334	-0.458775
C	 0.9471289036	-1.9696797487	 1.1881929352	-0.222662
C	 3.4507689852	-2.5314188635	 1.2149979159	 0.22828
N	 4.2908125756	-3.204378697	 0.7932006483	-0.337282
H	 0.950174669	 1.9885071341	-0.0625846894	 0.12168
H	-0.5754913529	 1.8833862984	-0.9467114536	 0.118335
H	-0.5721566066	 1.8458328747	 0.8309738197	 0.129764
H	-0.9289519593	-0.449919042	-0.1147288346	 0.107224
H	 0.5767522694	-0.3216412115	-1.0344059675	 0.077653
H	 2.7348366288	-0.1463286749	 0.2491881038	 0.108189
H	 2.4965159009	 0.5167919941	 1.9024444901	 0.131429
H	 2.391225983	-2.5619356399	 3.5217117447	 0.293726
H	 0.2469354692	-2.4807626821	 1.8580784111	 0.113319
H	 0.9888113277	-2.4979471585	 0.223030487	 0.106486
