17
gdb 82254	2.59184	1.94934	1.44445	2.2297	65.62	-0.2489	0.0541	0.3029	919.7488	0.137673	-458.919553	-458.912541	-458.911597	-458.951061	27.78	
O	 0.4944996398	 1.1439688595	-0.5225455756	-0.435779
C	 0.1064698491	-0.1451864871	-0.0881993737	 0.102701
C	 0.6228167302	-0.4583131123	 1.3122217134	-0.010918
O	 0.0456077096	 0.4475015795	 2.26436042	-0.254542
C	-0.4756634312	-0.8868437673	 2.1930864467	 0.015248
C	-1.7671077353	-0.968394476	 1.3898280325	 0.101901
O	-2.7091113504	 0.0832211587	 1.6732895008	-0.287037
C	-2.3649353589	 0.7742342524	 0.4487202911	-0.079623
C	-1.4291941286	-0.3719019454	 0.0028898043	-0.119466
H	 0.3409920652	 1.7417959953	 0.2192556107	 0.295027
H	 0.5412602157	-0.8428730019	-0.8117944729	 0.090536
H	 1.666014052	-0.7148243024	 1.4798380693	 0.105176
H	-0.3181137024	-1.4892733046	 3.0839286084	 0.103729
H	-2.2237866225	-1.9624339206	 1.4522139377	 0.078118
H	-3.2460788739	 0.9323581795	-0.1824718411	 0.105385
H	-1.884204614	 1.738722095	 0.6422436296	 0.10109
H	-1.8051980942	-0.9252684926	-0.8570796012	 0.088453
