20
gdb 117965	3.07386	0.94917	0.83336	1.4485	73.57	-0.2308	0.0644	0.2951	1456.0118	0.168916	-477.451572	-477.440497	-477.439553	-477.489092	37.154	
C	-0.027715866	 1.3906440377	-0.0128756373	-0.231041
O	 0.0188074086	-0.0365063206	-0.0074650688	-0.262899
C	 0.6017287401	-0.5745703086	 1.0959205035	 0.529525
O	 1.0614495182	 0.0970978468	 2.0002862642	-0.442164
N	 0.6114493702	-1.9359011055	 1.0643817055	-0.141251
C	 0.0149867657	-2.7432663357	 0.0087826477	-0.351107
C	 1.2488515094	-2.6236043677	 2.1802870869	-0.162566
C	 0.3099517778	-2.8925960999	 3.3506855645	-0.070547
O	-0.6857970051	-3.8164386123	 2.928740225	-0.416901
H	 0.9785289249	 1.8148707258	 0.032225063	 0.137303
H	-0.5137067627	 1.665318152	-0.9500053595	 0.125588
H	-0.6024154233	 1.76717374	 0.8374766991	 0.135127
H	 0.788912434	-3.2863003696	-0.5501211117	 0.116637
H	-0.6726480181	-3.469670599	 0.4487150584	 0.149223
H	-0.5264257974	-2.1012511788	-0.6815169428	 0.153131
H	 1.6459838278	-3.5750623071	 1.8100368819	 0.108496
H	 2.0802546182	-2.0110981206	 2.5354189154	 0.134795
H	 0.8990890358	-3.2971222798	 4.1896467069	 0.086308
H	-0.1312793434	-1.9405207904	 3.6750880421	 0.112408
H	-1.3672270247	-3.8573418767	 3.6054000062	 0.289936
