20
gdb 9481	2.7782	1.65294	1.48732	0.7034	81.04	-0.2505	0.053	0.3035	1000.0329	0.175335	-311.835494	-311.826598	-311.825653	-311.86816	34.215	
C	-0.6931572605	 1.1927948532	-0.0084040056	-0.419461
C	 0.1661748138	-0.0554729948	-0.1244024507	 0.030431
C	 1.5724833756	 0.02727579	-0.7731942534	-0.245191
C	 2.0801612878	-1.0091204271	 0.2601611099	-0.249473
C	 0.8353355086	-0.6900040673	 1.1625041956	 0.130458
C	 1.1749283368	 0.3304297371	 2.2601488459	-0.443456
C	 0.1368378299	-1.833091512	 1.7257917704	 0.26452
C	-0.4494052806	-2.7809559261	 2.1801860663	-0.459584
H	-0.1545089412	 2.0184538914	 0.4674475126	 0.113685
H	-1.0060912859	 1.5336200895	-1.0016710117	 0.115859
H	-1.5998637506	 0.9998846858	 0.5755624283	 0.121849
H	-0.4078643184	-0.847404773	-0.6156419302	 0.08237
H	 1.6501011621	-0.2368450733	-1.8301311584	 0.097975
H	 2.0302822656	 1.0112243168	-0.631899456	 0.09985
H	 2.0410386215	-2.0303913469	-0.1240455392	 0.111035
H	 3.0580960789	-0.8399206411	 0.7178380049	 0.099239
H	 1.7207640049	 1.1851389592	 1.8490010327	 0.113326
H	 0.2707060626	 0.7030419914	 2.7494763275	 0.12485
H	 1.8036976238	-0.1370629614	 3.0236982172	 0.124104
H	-0.9635657445	-3.6189727913	 2.5808684939	 0.187614
