16
gdb 76294	2.53285	1.60203	1.12365	3.9734	69.65	-0.2586	-0.0103	0.2483	1062.3592	0.125307	-471.218753	-471.210379	-471.209435	-471.251633	31.74	
O	 0.3156357964	 1.1212239163	 0.5882648368	-0.430768
C	 0.0151261244	-0.1383084628	 0.0823339452	 0.105661
C	-1.4828189539	-0.4399152045	-0.1276531917	 0.019214
O	-2.1192111329	 0.7273012104	-0.6103095534	-0.417784
C	-1.4541203713	-1.4820187099	-1.2495552337	 0.359663
N	-2.4331542075	-2.2402366914	-1.5233012058	-0.540077
N	-0.2305504416	-1.3259025386	-1.9037095915	-0.37278
C	 0.6005587766	-0.3925184039	-1.2998611628	 0.355245
N	 1.6420315136	 0.2012067639	-1.7089208749	-0.557389
H	 1.005262549	 1.4815950364	 0.011742271	 0.300518
H	 0.4105494693	-0.9313460363	 0.7421084935	 0.101083
H	-1.9753741651	-0.8365891713	 0.7661140244	 0.09697
H	-3.0090629999	 0.4677078501	-0.8765025435	 0.296605
H	-2.2644105122	-2.8144761866	-2.3518241175	 0.212075
H	-0.0354376197	-1.738774484	-2.8039263347	 0.252517
H	 1.909617845	-0.0458598579	-2.6611727515	 0.219247
