21
gdb 63514	3.14464	1.29487	1.25751	1.7241	83.25	-0.2487	0.0899	0.3386	1145.355	0.181422	-387.030773	-387.022173	-387.021228	-387.063471	33.945	
C	-0.0205691468	 1.5321398834	-0.0694220794	-0.452438
C	-0.0896181377	 0.0272437477	 0.0646459134	 0.193427
C	-1.2092282216	-0.6508456784	-0.6930614199	-0.452436
O	 1.2086246464	-0.643704688	-0.061253314	-0.364455
C	 0.5580755635	-0.6455565012	 1.1852296245	 0.549285
C	 1.1525244484	-0.2379545484	 2.544998404	-0.154679
C	-0.1536737128	-0.8235757683	 3.1650616581	-0.22202
C	 0.2676691482	-1.8629876955	 2.0807743493	-0.154679
C	 1.7318853317	-1.6890372629	 2.6005860903	-0.227298
H	 0.8313079293	 1.9350183455	 0.4823561085	 0.127016
H	 0.0855578497	 1.8167291572	-1.122200358	 0.124057
H	-0.936161185	 1.9978240429	 0.311550126	 0.118617
H	-1.1358594702	-0.4268140615	-1.7631188453	 0.12406
H	-1.166967178	-1.7345849614	-0.5658286229	 0.127013
H	-2.1848512973	-0.2952629236	-0.3437325507	 0.118616
H	 1.6578031207	 0.689965011	 2.8114428853	 0.077314
H	-0.0710813974	-1.1641399702	 4.199788419	 0.095595
H	-1.0805332599	-0.2700874871	 2.994236487	 0.092637
H	-0.2378977739	-2.7914847957	 1.8169005117	 0.077314
H	 2.5330850768	-1.9246377388	 1.8981511521	 0.112926
H	 1.9329278659	-2.0839897367	 3.599924351	 0.090127
