19
gdb 64580	3.73647	1.15745	1.13784	3.2581	82.48	-0.2362	-0.0211	0.2151	1149.6944	0.159118	-385.905169	-385.89689	-385.895946	-385.937868	31.838	
C	-0.114609968	 1.5770719527	-0.0255795113	-0.473925
C	 0.0023468409	 0.0718847888	-0.0663652806	 0.218201
C	-1.1796911799	-0.6588174985	 0.4609815568	 0.124046
O	-2.1676610206	-0.1379402103	 0.9182293969	-0.274471
C	 0.7165377071	-0.6872709529	-1.1854038991	-0.099489
C	 1.6744409407	 0.0863434009	-2.0946849433	-0.288284
C	 2.7836183658	 0.52017765	-1.1592464264	-0.074218
C	 2.5889591137	 0.071788127	 0.0842287639	-0.082191
C	 1.3230635719	-0.7038888589	 0.1924033373	-0.122064
H	 0.8346670215	 2.0666447442	-0.2461561325	 0.121738
H	-0.8602818866	 1.9211443565	-0.7495663128	 0.125824
H	-0.4538089873	 1.8986614166	 0.9627152756	 0.134445
H	-1.0906412555	-1.7706237444	 0.4103668759	 0.060748
H	 0.2155518137	-1.5607294588	-1.5880471939	 0.093346
H	 2.0522749615	-0.5587955977	-2.8982725563	 0.116949
H	 1.1946838967	 0.9412388716	-2.588798082	 0.120363
H	 3.6073228674	 1.1466144882	-1.4816455046	 0.101582
H	 3.2389051843	 0.2540897514	 0.9316447519	 0.102236
H	 1.2688470927	-1.5677104163	 0.8465902644	 0.095165
