16
gdb 28470	3.18097	1.35461	0.95566	0.2217	76.26	-0.213	-0.0128	0.2002	1181.5503	0.12527	-437.965595	-437.957488	-437.956544	-437.998182	30.912	
C	-0.0776600102	 1.5201465037	-0.0288135308	-0.495527
C	-0.0060909097	 0.0149939263	 0.0033977489	 0.27661
C	-0.0012953725	-0.7366411076	-1.1642161862	-0.098643
N	 0.061686327	-2.0793738317	-1.185449523	-0.35736
C	 0.1217640551	-2.7085067778	-0.035519839	 0.312939
O	 0.1865792471	-4.0691020636	-0.0157518657	-0.448013
C	 0.1241554139	-2.0649818763	 1.2155429774	 0.291431
O	 0.1880998356	-2.7734563555	 2.3721237524	-0.443172
C	 0.0588981477	-0.6851887479	 1.2189279001	-0.248911
H	 0.7988778783	 1.9745777	 0.4467789706	 0.1319
H	-0.1274921846	 1.888472772	-1.0569508162	 0.125907
H	-0.9608654961	 1.8920854218	 0.5027201548	 0.131793
H	-0.0499926363	-0.2478965213	-2.1334582988	 0.100906
H	 0.1753256297	-4.3573797189	-0.9380189103	 0.30204
H	 0.2251820181	-3.7096918035	 2.1388498591	 0.310789
H	 0.059003537	-0.1622333197	 2.1700079365	 0.107312
