23
gdb 94848	3.43844	1.1012	1.0298	1.5621	85.3	-0.2356	0.0764	0.3119	1306.9114	0.206793	-388.298753	-388.289839	-388.288894	-388.333206	34.348	
C	 0.1450843899	 1.6053662986	 0.0734194897	-0.407971
C	 0.0258395227	 0.0849309008	-0.0198354495	 0.05729
C	 0.7978148857	-0.5434870362	-1.2002941308	-0.214676
C	 0.9682743563	-2.0052939528	-0.7726727187	-0.25968
C	 1.369136581	-1.8837318405	 0.7023178559	 0.465125
C	 1.4821642226	-3.1747744661	 1.543678661	-0.362186
C	 2.9981958084	-2.9127504118	 1.5062520244	-0.068434
O	 2.8103298299	-1.656799792	 0.8282371231	-0.323608
C	 0.562324137	-0.6772449021	 1.2265716672	-0.285463
H	 1.1910375159	 1.9063550328	 0.2029828014	 0.118106
H	-0.2324408603	 2.0900968218	-0.8336588717	 0.109394
H	-0.4231470791	 2.0011418366	 0.9221892026	 0.109929
H	-1.0351436391	-0.1693843638	-0.1454202864	 0.065352
H	 0.2843014498	-0.4204861244	-2.1583762333	 0.087568
H	 1.7865225595	-0.0763174325	-1.2894585545	 0.109603
H	 0.0089559383	-2.5361653604	-0.8446364129	 0.090214
H	 1.710092481	-2.5639783879	-1.349518247	 0.097212
H	 1.0335767107	-3.1037043439	 2.5368336431	 0.106415
H	 1.1343357783	-4.0886388154	 1.0573966702	 0.104706
H	 3.4963679827	-2.7857321142	 2.4747444306	 0.100181
H	 3.5789425972	-3.6237139449	 0.9038112907	 0.096694
H	 1.2317095423	-0.0530810549	 1.8266930521	 0.109503
H	-0.2519488009	-1.0038683471	 1.881446403	 0.094727
