20
gdb 58880	3.18823	1.31724	1.12049	1.2721	78.05	-0.2425	0.0175	0.2601	1159.7112	0.170907	-403.153003	-403.144452	-403.143508	-403.186117	33.084	
C	-0.1093248304	 1.5715043328	 0.357372452	-0.384163
C	-0.028433013	 0.0771635609	 0.0107046165	-0.055644
C	 0.9210478412	-0.6669454165	 0.9573128405	-0.410569
C	-1.4221889533	-0.5242919194	-0.03849775	 0.346746
C	-2.2131803213	-0.9460983603	 1.1878520407	-0.355804
C	-1.8474188699	-1.9740467625	 0.1542945836	 0.00441
O	-2.8185584059	-2.2316191642	-0.8519355421	-0.215213
C	-2.9762199571	-1.0416110402	-1.4878717144	 0.089071
N	-2.2591101107	-0.0541770021	-1.134180998	-0.306606
H	 0.8792812129	 2.0383149402	 0.2992209004	 0.104846
H	-0.7797868251	 2.0914311934	-0.3311275935	 0.138393
H	-0.4896358689	 1.7143579754	 1.3753333036	 0.11004
H	 0.374107536	-0.0112342454	-1.0072990351	 0.083449
H	 0.5968249526	-0.5883596684	 2.0010143536	 0.11649
H	 1.002541198	-1.7291164372	 0.7045055009	 0.112777
H	 1.9245813281	-0.2349837623	 0.8982041913	 0.118362
H	-1.6766384265	-1.0200005231	 2.1271936251	 0.121919
H	-3.2463153662	-0.6251085472	 1.2705736124	 0.123279
H	-1.2261366471	-2.833810886	 0.3671597024	 0.115022
H	-3.7227760535	-1.0413270781	-2.27272817	 0.143195
