22
gdb 29685	2.33629	1.51208	0.93944	1.8564	92.66	-0.1793	0.0524	0.2317	1316.4567	0.19273	-367.268936	-367.258224	-367.257279	-367.305616	37.934	
C	 0.1252368707	 1.4243406549	 0.0275885613	-0.341763
N	 0.0555362176	-0.0201580751	-0.0000652931	-0.093803
C	-0.0901233026	-0.8070275545	-1.1265332228	 0.292616
C	-0.1706614119	-0.2476861202	-2.5092411439	-0.502637
C	-0.1389721494	-2.1149231888	-0.7066798444	-0.335842
C	-0.0231814019	-2.1393970181	 0.7143957535	 0.216631
C	-0.0247132262	-3.3704026006	 1.5712685215	-0.504148
C	 0.0945551249	-0.8275037907	 1.1272717676	 0.188701
C	 0.2437498065	-0.2397194627	 2.4918349222	-0.507659
H	 1.026748375	 1.7671173192	 0.5468182388	 0.133536
H	 0.1557653388	 1.8080911328	-0.9922264103	 0.139951
H	-0.7452433849	 1.8619330235	 0.5311531408	 0.131536
H	 0.7299557528	 0.3105051725	-2.7968193637	 0.122198
H	-0.2836526023	-1.0693246201	-3.2204491953	 0.132339
H	-1.0269475662	 0.4249635272	-2.6485905716	 0.121817
H	-0.2455983742	-2.972940307	-1.3550858002	 0.080238
H	 0.0123627496	-3.1286822989	 2.6373652411	 0.112756
H	-0.9250636369	-3.9746593901	 1.4069588317	 0.119672
H	 0.8344987681	-4.0178674647	 1.3560171752	 0.119797
H	 1.1856394723	 0.312192996	 2.6131914569	 0.121368
H	-0.5680099762	 0.456323492	 2.7419813525	 0.120683
H	 0.2349528763	-1.0309767564	 3.2441059523	 0.132013
