19
gdb 33660	2.98425	1.43336	1.3561	0.8806	86.76	-0.2257	0.0441	0.2698	1052.3175	0.160988	-348.711291	-348.703836	-348.702892	-348.742872	30.643	
C	-0.0296968348	-1.1959860102	 0.0575918781	-0.381319
C	-0.0251583627	 0.0083685721	 0.0266871769	 0.064228
C	 0.0058932512	 1.4235763099	-0.0086783889	 0.275273
C	-0.7205091205	 2.4839506487	 0.8335541624	-0.125968
C	 0.5875216743	 3.237813618	 1.0656015768	-0.235191
C	 1.2527264433	 2.3704572931	-0.0515201192	-0.10365
C	 1.1779196156	 3.0659989789	-1.4149624059	-0.212186
C	-0.3430200547	 3.3090217845	-1.6271056466	-0.236875
C	-1.013569977	 2.3488402935	-0.6455089268	-0.092671
H	-0.0381024656	-2.2568877931	 0.0838548482	 0.174357
H	-1.4960671462	 2.3112757525	 1.570670432	 0.094646
H	 0.5866340172	 4.3238092099	 0.9165177752	 0.090587
H	 1.0036967042	 3.0161568845	 2.0512574618	 0.106529
H	 2.2193489367	 1.932664111	 0.1934503125	 0.078036
H	 1.7611919461	 3.9921594561	-1.4404675797	 0.096331
H	 1.5721217413	 2.404264808	-2.1940848726	 0.104524
H	-0.6220220543	 4.3484120495	-1.4227458617	 0.103819
H	-0.6477819127	 3.0941008035	-2.655197093	 0.103688
H	-1.9824699814	 1.9264374794	-0.8862333995	 0.095842
