18
gdb 94409	2.61445	1.36006	1.20663	4.0264	72.5	-0.2493	0.0227	0.2721	1110.9088	0.147369	-439.087025	-439.078339	-439.077394	-439.120877	31.584	
C	-0.3407018568	 1.4519836779	-0.0054157441	-0.40902
C	 0.1572736532	 0.0234158299	-0.0713233537	 0.106772
O	 1.3985930124	-0.0973970319	-0.8081430834	-0.296219
C	 2.0313116999	-0.7961296244	 0.2794635849	-0.128886
C	 0.7993078802	-0.6208566194	 1.1817205408	 0.098818
C	 0.8512673637	 0.0358017135	 2.5883283464	-0.237406
N	 0.2146735236	-1.1835404014	 3.1015440741	-0.33978
C	 0.1414161528	-1.8256104757	 1.8896701399	 0.383801
O	-0.2751615978	-2.8985862016	 1.5438471806	-0.363692
H	 0.4066345774	 2.1133341814	 0.4431946846	 0.11966
H	-0.5514571955	 1.8135758598	-1.0166167861	 0.13503
H	-1.266723088	 1.5145017906	 0.5765263761	 0.120403
H	-0.609411968	-0.6319505053	-0.5072534879	 0.096592
H	 2.2564299377	-1.839636615	 0.0263317843	 0.121234
H	 2.9477160475	-0.2965701649	 0.6172944244	 0.104407
H	 1.8609547102	 0.2124981798	 2.9744097834	 0.115653
H	 0.248762158	 0.9411553463	 2.7098108617	 0.118727
H	-0.0578046303	-1.4662275196	 4.0309557239	 0.253908
