23
gdb 93852	1.73913	1.70104	1.43881	1.6006	80.64	-0.2425	0.0701	0.3127	1136.1407	0.204202	-425.440516	-425.430559	-425.429615	-425.474558	38.636	
C	 0.5553790106	 1.6129893926	-0.1574723936	-0.420629
C	 0.0870916762	 0.1732407459	 0.0760419457	-0.002361
C	 0.575571739	-0.7724442434	-1.028847517	-0.088536
O	 1.9157172397	-1.088373119	-0.6682471374	-0.277694
C	 1.9997328372	-1.1819402446	 0.7538840221	 0.122167
C	 3.3366077344	-0.5923829806	 1.1874797391	-0.411535
C	 0.6872775899	-0.5323855237	 1.3191459142	 0.341169
C	 0.867399306	 0.3379614442	 2.5604201412	-0.464655
O	-0.2618385831	-1.5709803509	 1.610908898	-0.478303
H	 1.6377007337	 1.6642040366	-0.3104837174	 0.129089
H	 0.0785818278	 2.0178471304	-1.0561452032	 0.115404
H	 0.2944074146	 2.2708442129	 0.6761503667	 0.115015
H	-1.0022550389	 0.1480593457	 0.1695052484	 0.084063
H	-0.0457255638	-1.6780726682	-1.0664314683	 0.098825
H	 0.599132451	-0.3155197541	-2.0226002994	 0.097695
H	 1.974441314	-2.2456813328	 1.0445545047	 0.056554
H	 3.3993195009	 0.4754234867	 0.9611048356	 0.122098
H	 3.5043792113	-0.7331898776	 2.2596538713	 0.109326
H	 4.1428268539	-1.0974760306	 0.6482020737	 0.127656
H	 1.5587497886	 1.1675351433	 2.3973991537	 0.123105
H	-0.1000814867	 0.7439535867	 2.8692546475	 0.124683
H	 1.2587895973	-0.2588752257	 3.3929638782	 0.104387
H	 0.1171986764	-2.1352254539	 2.2933908961	 0.272477
