16
gdb 81112	2.57689	1.76231	1.2783	4.6149	73.3	-0.2615	-0.0244	0.2371	994.6775	0.124039	-400.711566	-400.704024	-400.70308	-400.74333	29.535	
C	-0.1297216565	 1.5290803981	-0.0192160035	-0.430723
C	-0.0247393176	 0.0159045884	-0.0311140747	-0.010372
C	 1.2774624099	-0.6038126037	-0.6510668759	-0.015799
O	 1.9784597141	-0.2440084184	 0.591107121	-0.305577
C	 0.7127363941	-0.6499263284	 1.201745781	 0.281214
C	 0.6422822133	-2.1458813191	 0.8276655266	-0.125381
C	 1.0364311412	-2.1066328546	-0.4457266119	-0.083971
C	 0.5006309131	-0.2308723651	 2.5708952462	 0.171222
N	 0.2871444253	 0.1064205203	 3.6550899392	-0.335734
H	 0.8217494206	 1.9863818458	 0.2597848886	 0.14497
H	-0.419363435	 1.8963930065	-1.0093495942	 0.123123
H	-0.8953429557	 1.8567223659	 0.6915176498	 0.137032
H	-0.9620767138	-0.4671696292	-0.3152580395	 0.090058
H	 1.7514114206	-0.2306007713	-1.556461321	 0.09639
H	 0.3375455403	-2.9550611618	 1.4727730787	 0.136356
H	 1.148354586	-2.8959705433	-1.1734814404	 0.127193
