21
gdb 76547	2.43005	1.27159	1.16623	2.2279	79.7	-0.2218	0.0631	0.2849	1218.3786	0.180179	-424.190872	-424.180807	-424.179863	-424.225885	36.52	
C	-0.1352535286	 0.7389457881	-2.0545092346	-0.409848
C	 0.0400096326	-0.3965547514	-1.069815703	-0.092792
C	 1.3522966667	-0.6390391527	-0.3178703267	-0.119918
C	 2.5729613925	 0.2375125009	-0.5053750008	-0.409378
C	 0.1483458541	-0.1147204874	 0.3979656401	 0.430176
O	 0.0970317856	 1.2208531516	 0.9156804091	-0.309367
C	-0.850377613	 0.8156424582	 1.9312994236	-0.102062
C	-0.692698339	-0.6742254339	 1.5341052722	-0.035781
O	-1.8349497206	-1.3713608394	 1.1003958804	-0.424894
H	 0.2670279262	 1.676165055	-1.6636246127	 0.132303
H	 0.3584212706	 0.52272511	-3.008164016	 0.112371
H	-1.1984831155	 0.9030160143	-2.2592064044	 0.118915
H	-0.516081582	-1.2986583849	-1.3118893269	 0.095325
H	 1.5782063588	-1.6876278903	-0.1311608357	 0.079986
H	 2.3095274818	 1.297124243	-0.5201496842	 0.135282
H	 3.2802042336	 0.0917202327	 0.3181947878	 0.11498
H	 3.0945898356	-0.0000844829	-1.4388111826	 0.113866
H	-0.5212826881	 1.1102966867	 2.9336365536	 0.100113
H	-1.85775629	 1.2014967025	 1.7335023903	 0.104995
H	-0.1170194949	-1.2603840761	 2.2623259441	 0.077393
H	-2.2377398465	-1.8017465941	 1.8605044164	 0.288334
