21
gdb 38819	2.9119	1.68193	1.19849	0.1721	87.23	-0.2342	0.0333	0.2674	1079.48	0.185443	-349.942277	-349.934818	-349.933874	-349.974343	30.566	
C	-0.0377504469	 1.4716390483	 0.1683510086	-0.34226
C	 1.3034541479	 0.824722209	-0.0370226745	-0.095937
C	 1.745045704	 0.1834559834	 1.2839320968	-0.251921
C	 0.4684732416	-0.7253593353	 1.2474176752	-0.061083
C	 0.7662691696	-2.2198025205	 1.0265332953	-0.275004
C	-0.1223705788	-2.8697519741	-0.003156074	-0.066187
C	-0.7696912806	-2.21236498	-0.9635730747	-0.035152
C	-0.7588692013	-0.716070272	-1.1313251427	-0.389101
C	 0.0174756005	-0.0148078262	-0.0420464139	 0.399439
H	-0.3007130229	 1.8925375087	 1.1380515901	 0.097281
H	-0.4210174064	 2.0357400127	-0.6776039691	 0.104092
H	 1.9524568865	 1.0986182849	-0.8615056926	 0.079029
H	 2.6669965374	-0.3986644482	 1.2143594698	 0.098035
H	 1.8347718894	 0.8743616019	 2.1293251055	 0.091625
H	-0.2207478364	-0.6080701862	 2.0920950937	 0.060481
H	 1.8098893795	-2.3484479098	 0.7038380405	 0.106332
H	 0.6925788751	-2.7598823874	 1.9782332129	 0.101246
H	-0.1935145791	-3.9544674296	 0.0359471472	 0.080981
H	-1.3673867265	-2.7681395257	-1.6825893867	 0.081015
H	-0.3571188178	-0.4543242136	-2.1213292202	 0.108771
H	-1.8001503546	-0.3602583903	-1.1447053174	 0.108318
