16
gdb 50005	4.10805	1.08838	1.04984	3.9019	70.67	-0.252	-0.0024	0.2496	1155.2788	0.123288	-437.827209	-437.819509	-437.818565	-437.859916	28.671	
O	 0.1445387652	 0.1863945342	-0.5293562079	-0.283366
C	 0.0994095093	 1.2901584099	-0.0458356498	 0.133945
N	 1.1574195649	 1.918862423	 0.5914009868	-0.112563
C	 2.5374770114	 1.8453364925	 0.1541361889	-0.313109
C	 1.7953021423	 3.144702628	 0.1865382349	 0.334781
C	 1.4980687771	 4.0687250819	-1.0302666995	-0.343816
C	 1.7783184311	 5.250638066	-0.0855162468	 0.038772
O	 0.8362064258	 5.1566034781	 0.9840027445	-0.238782
C	 2.0276355626	 4.3600794786	 1.0637604402	-0.064284
H	-0.8212530688	 1.9011309649	 0.0008536402	 0.095047
H	 3.2675196791	 1.6145391318	 0.9258183807	 0.130723
H	 2.7259844517	 1.3895074441	-0.8150558595	 0.13919
H	 2.2298146532	 3.9499692063	-1.8327567949	 0.123761
H	 0.485648639	 4.0456672632	-1.438476378	 0.127114
H	 2.1898286149	 6.225059776	-0.3162697944	 0.117123
H	 2.6506160112	 4.4694191114	 1.9431578746	 0.115464
