23
gdb 13715	4.61265	0.84985	0.78008	1.2762	83.06	-0.2197	0.0839	0.3036	1564.0563	0.210933	-330.303164	-330.293379	-330.292435	-330.338153	35.532	
C	 0.0354516782	 1.4987875824	 0.244563479	-0.380036
C	-0.0116134878	 0.0274881415	-0.1760242213	-0.164082
C	-1.3722328941	-0.6292974062	 0.0788448066	-0.155964
C	-1.4243676067	-2.1040233799	-0.3448201914	-0.219617
C	-2.7874763072	-2.7363895747	-0.143338451	 0.026193
C	-2.9469937703	-4.2090913332	 0.0303218044	-0.264681
N	-3.2546142729	-3.300080447	 1.1284320199	-0.078015
C	-2.3765952972	-3.327998899	 2.2873105188	-0.311793
H	 1.0191628441	 1.9389005673	 0.0532508228	 0.110883
H	-0.7062560949	 2.0910800252	-0.3029395415	 0.113995
H	-0.1776637946	 1.6119454605	 1.3134119729	 0.113811
H	 0.2372722984	-0.0579995963	-1.2422895717	 0.093906
H	 0.7661785802	-0.5322893392	 0.3606373304	 0.093419
H	-1.6237865291	-0.5446002367	 1.1442799879	 0.099241
H	-2.1522058646	-0.072045026	-0.458569624	 0.094132
H	-1.1698426616	-2.1816248943	-1.4109823165	 0.098702
H	-0.6523400282	-2.6715911898	 0.1871439061	 0.095352
H	-3.5841208102	-2.2086876274	-0.6695454481	 0.084027
H	-3.7883432449	-4.7425104175	-0.4056231068	 0.109664
H	-2.028957948	-4.7940959338	 0.0986073236	 0.099414
H	-1.3180375336	-3.5322467628	 2.0625493994	 0.09804
H	-2.4369881835	-2.370648201	 2.8155025288	 0.12133
H	-2.7270946516	-4.1098011822	 2.9692607916	 0.122078
