16
gdb 75732	2.6559	1.64487	1.02254	3.282	78.36	-0.2221	-0.0522	0.1699	1110.1176	0.125644	-434.13742	-434.1287	-434.127756	-434.170719	31.943	
C	-0.0291156522	 1.4136856207	 0.0016306079	-0.338789
N	-0.0224425422	-0.0334409767	 0.0156564673	-0.134642
C	-1.1796473501	-0.8413911699	 0.0109118346	 0.373075
N	-2.3364125038	-0.3050256275	 0.0038598837	-0.546365
C	-0.7278792079	-2.2376926054	 0.0132448474	-0.359103
C	 0.6240395306	-2.2416693711	 0.0215567376	 0.291275
N	 1.574564041	-3.1995862573	 0.061749237	-0.593962
C	 1.1066005292	-0.8097345601	 0.012698832	 0.39469
O	 2.2677459613	-0.4537874891	-0.0053333784	-0.396214
H	 1.010417372	 1.7447956036	-0.0038950417	 0.153676
H	-0.5442842836	 1.7885972204	-0.8868136624	 0.144196
H	-0.5401507015	 1.8055912238	 0.8850592705	 0.144559
H	-3.0567635844	-1.0266965625	-0.0008882169	 0.221464
H	-1.407296612	-3.0770264409	 0.0126375536	 0.103775
H	 1.3581187249	-4.1604950914	-0.1358487178	 0.266359
H	 2.5228163387	-2.8857702067	-0.0820153942	 0.276006
