19
gdb 51236	3.33888	1.10728	0.96376	1.019	75.51	-0.2479	-0.0294	0.2185	1246.4618	0.158216	-422.997877	-422.989274	-422.98833	-423.032458	31.285	
O	-0.0025351076	-0.1190297955	-0.4325904483	-0.236653
C	 0.0626144453	 1.0421296818	-0.1213371862	 0.163865
C	 1.3341457352	 1.8645510815	-0.1167579176	-0.393041
C	 1.2718771444	 2.9682105151	-1.1643780033	 0.296987
C	 1.3306278752	 2.5598939925	-2.669741803	-0.290729
C	 2.5085314976	 3.5580212602	-2.8999546929	-0.229294
C	 2.3989187469	 4.0152184498	-1.4304247815	 0.063397
O	 1.4754905171	 5.1081657951	-1.2498210846	-0.289952
C	 0.3966966002	 4.212735851	-0.9043203367	-0.125237
H	-0.8542862213	 1.6060263294	 0.1711107234	 0.077143
H	 1.4553878492	 2.3123350954	 0.8794304377	 0.11776
H	 2.1776310991	 1.1929840033	-0.3043385797	 0.121707
H	 1.6031484788	 1.5128963551	-2.8205668019	 0.118885
H	 0.4167234104	 2.757968606	-3.2358400448	 0.106664
H	 3.4550728746	 3.0620455824	-3.1308614064	 0.106049
H	 2.3404330777	 4.3587271703	-3.6227051587	 0.115635
H	 3.3083886627	 4.1361176219	-0.8344920341	 0.075536
H	-0.4810453999	 4.343923098	-1.5496684941	 0.10444
H	 0.0907943745	 4.3456684465	 0.1430678627	 0.096837
