17
gdb 2750	4.33012	2.17265	1.65982	0.7265	69.87	-0.253	0.0494	0.3024	793.0309	0.147667	-272.544323	-272.536852	-272.535908	-272.575539	28.147	
C	-0.1457421551	 1.5379965583	-0.0590127048	-0.391524
C	-0.0046181949	 0.0212492702	-0.0285047439	 0.012285
C	 1.1715075707	-0.5292035974	-0.8882738377	-0.226816
C	 2.0346051627	-0.6523169793	 0.393701121	-0.223427
C	 0.7272520834	-0.5562652744	 1.2439997172	-0.158637
C	 0.7410879261	 0.2082870186	 2.4730699444	 0.31988
C	 0.7590212157	 0.8592729908	 3.4851188318	-0.464274
H	 0.8141639334	 2.0361229803	 0.1137191683	 0.118881
H	-0.5227099637	 1.8650118215	-1.034070152	 0.110173
H	-0.8391981007	 1.8870247944	 0.7119206744	 0.124507
H	-0.9768834178	-0.4422559293	-0.2187576045	 0.07151
H	 0.9438301475	-1.5038530842	-1.3285269465	 0.100182
H	 1.5451363151	 0.1283340942	-1.677192709	 0.098324
H	 2.6351057136	-1.5550209437	 0.5230979002	 0.103135
H	 2.674478934	 0.2183169253	 0.5517778474	 0.114322
H	 0.3485993779	-1.5641129234	 1.4463992756	 0.099859
H	 0.7749539422	 1.4271269281	 4.3819876881	 0.19162
