20
gdb 109271	3.25758	1.13332	0.92075	2.4167	81.91	-0.2312	-0.0007	0.2305	1319.3424	0.171988	-403.15208	-403.143215	-403.142271	-403.185958	32.861	
C	-0.3910470139	 1.2797006522	 0.34570249	-0.375113
C	-0.0767470867	-0.1732861141	-0.0534369261	-0.286185
C	 0.8641992212	-0.2817584442	-1.2260806588	 0.319273
C	 2.1036630697	-0.7654543493	-1.1330932058	-0.172153
C	 3.0507437474	-0.8837723559	-2.3090140915	-0.216103
N	 2.5604490307	-1.570935709	-3.5011976522	-0.263151
C	 1.3765911543	-1.5437484192	-3.9329920632	 0.139414
O	 0.2537334641	-0.8893702144	-3.5392939	-0.221529
C	 0.3692728721	 0.1760040251	-2.5798885415	-0.173483
H	 0.5211743671	 1.8074733219	 0.6406516071	 0.122207
H	-0.8470902089	 1.8382700697	-0.4786959144	 0.118344
H	-1.0897018524	 1.3081468275	 1.1873492784	 0.11844
H	 0.3554073831	-0.6992453964	 0.8045537582	 0.105142
H	-1.0175574478	-0.6874747407	-0.2953922368	 0.109058
H	 2.4735699965	-1.1106247887	-0.1694309686	 0.08846
H	 3.4191461223	 0.1129258843	-2.6015304348	 0.118873
H	 3.9427412197	-1.4307870984	-1.9873243719	 0.115086
H	 1.1202454136	-2.1499127801	-4.8031480343	 0.118142
H	-0.6399061732	 0.5884632013	-2.5199198577	 0.115769
H	 1.022632221	 0.9531484283	-2.9983212861	 0.119507
