19
gdb 66194	2.25793	1.55633	1.41728	0.9957	81.72	-0.2439	0.0234	0.2673	1064.0728	0.158012	-385.863674	-385.854944	-385.853999	-385.89646	34.103	
C	 0.0085743859	 1.5088622433	 0.0636780253	-0.421642
C	-0.0323836428	-0.0210533838	-0.0150030106	 0.158009
C	 0.7176604076	-0.5414209939	-1.2641339573	-0.271782
C	 1.0825565867	-1.9941024835	-1.1179807512	-0.064814
C	 1.0548104157	-2.6087915253	 0.0606271442	-0.055926
C	 0.6804870497	-1.8854331288	 1.3210646287	-0.123584
O	 0.6384740547	-0.4757584183	 1.1653284346	-0.274948
C	-1.4326548437	-0.4832378966	-0.0286744569	 0.371193
C	-2.5785083434	-0.8469416731	-0.0287727752	-0.524483
H	 1.0482778206	 1.8371539991	 0.1446442783	 0.123505
H	-0.4400547472	 1.9498303162	-0.8302168263	 0.1227
H	-0.5400469586	 1.8551991211	 0.9419525247	 0.13257
H	 0.0935800932	-0.3887945032	-2.152029061	 0.113788
H	 1.6205683767	 0.0671634027	-1.4089657498	 0.11083
H	 1.3681262557	-2.5320256927	-2.0177098372	 0.089997
H	 1.2891361649	-3.6656129189	 0.1547057059	 0.090874
H	-0.2867647533	-2.2605884375	 1.6965312883	 0.110239
H	 1.4224277566	-2.068193426	 2.1073655862	 0.115593
H	-3.5901002691	-1.1706244608	-0.0313470406	 0.197882
