18
gdb 118939	2.45228	1.35115	1.1203	3.6659	67.91	-0.2505	0.0055	0.256	1152.5519	0.146623	-476.220036	-476.210504	-476.209559	-476.25476	33.551	
C	 0.3006111783	 0.7921684548	 0.4797530341	-0.265228
O	-0.3871128764	 0.2394250345	-0.6353826514	-0.236887
C	 0.4147646171	-0.5090169812	-1.5162232725	-0.139272
C	 0.5128006192	-1.9962803063	-1.1175035502	 0.051826
N	-0.7634414382	-2.6186465672	-0.7946329868	-0.547499
C	 1.4092435666	-2.8519846293	-2.0376001079	-0.098757
O	 2.35213973	-3.0769457285	-0.9403629857	-0.237346
C	 1.5902108774	-2.3512425976	-0.0684676258	 0.472626
O	 1.8036542872	-2.1418610037	 1.0835053532	-0.330584
H	 0.703012274	 0.0194735305	 1.1439542562	 0.153631
H	 1.1245990042	 1.4417844481	 0.1496293186	 0.109647
H	-0.4277774548	 1.3977778833	 1.0238042756	 0.128769
H	-0.0782124733	-0.4629900716	-2.4970135879	 0.106103
H	 1.4167429891	-0.0641742492	-1.6253193142	 0.096976
H	-1.2042483331	-2.0628395728	-0.0649915664	 0.250017
H	-1.382917446	-2.5445133147	-1.5997000622	 0.232206
H	 0.9616321876	-3.7919749272	-2.3630915127	 0.133005
H	 1.8996900708	-2.3348144821	-2.8658985541	 0.120769
