17
gdb 66593	3.05142	1.88836	1.60679	0.3574	69.54	-0.237	0.0675	0.3045	872.382	0.137808	-421.770225	-421.763734	-421.762789	-421.800719	27.244	
O	-0.1124603791	 1.3388020145	 0.065195188	-0.471283
C	 0.0266744932	-0.0311144692	 0.031793558	 0.409083
C	-0.2154016972	-0.8627763734	-1.2423683243	-0.190665
C	-1.0760205366	-1.0452356306	 0.0022044016	-0.166263
C	 0.0086629254	-2.0742263718	 0.4705244531	-0.101536
C	 0.5751257061	-2.1491810841	-0.9743914041	 0.128591
O	 1.9842422775	-2.021836637	-0.9358325154	-0.281408
C	 2.3089239508	-1.2137568397	 0.2110989726	-0.094762
C	 0.9667998487	-0.9080214856	 0.8789688582	-0.135609
H	 0.5404053309	 1.7302282722	-0.5260598869	 0.287712
H	-0.479539664	-0.3845758861	-2.1771296776	 0.086499
H	-2.1419135443	-0.9688962246	 0.1466500173	 0.101963
H	-0.1360867245	-2.9503759357	 1.0963423701	 0.075284
H	 0.3123897963	-3.0128106811	-1.5864566077	 0.081132
H	 2.990221346	-1.7778614587	 0.86157227	 0.100113
H	 2.8296878483	-0.3027998486	-0.1136535777	 0.092847
H	 1.0001267025	-0.6509724803	 1.9381670246	 0.078302
