21
gdb 70089	2.13789	1.84911	1.44061	1.0985	83.13	-0.2293	0.0137	0.243	1042.9447	0.181428	-387.092862	-387.083833	-387.082889	-387.125552	36.019	
C	-0.08267571	 1.4810050134	-0.0122152373	-0.477642
C	 0.0511838578	-0.0243983925	 0.0116670114	 0.329768
C	-0.7619448487	-0.8121060346	 1.0084495764	-0.330659
C	 0.7527268747	-0.7592215188	 1.141103235	-0.12734
C	 1.451016354	-1.9073810848	 0.5006979221	-0.082327
C	 1.2325387606	-1.943053514	-0.8149996469	-0.144009
C	 0.4297283975	-0.7462723356	-1.3009277621	 0.282843
C	-0.7712401887	-1.1209162623	-2.1770687862	-0.430091
O	 1.272891598	 0.1633053192	-2.0300876796	-0.472183
H	 0.8251627963	 1.9506513838	-0.3960207612	 0.138603
H	-0.9170578295	 1.7967346606	-0.6495187853	 0.113145
H	-0.2748787782	 1.8640321422	 0.9949343853	 0.104051
H	-1.3525858646	-0.2313102933	 1.710744651	 0.105926
H	-1.2017863698	-1.7634604709	 0.7289843775	 0.108634
H	 1.1943776378	-0.2408885159	 1.9852771512	 0.084861
H	 2.0170775273	-2.6410051377	 1.0645570442	 0.09729
H	 1.5718777368	-2.7173135756	-1.4960389812	 0.084567
H	-1.4662394897	-1.7830551853	-1.6544092171	 0.119153
H	-1.3072900961	-0.2179112388	-2.4842392618	 0.123425
H	-0.436683307	-1.6394405337	-3.0839991723	 0.099495
H	 1.5941351715	-0.3007611754	-2.8102120931	 0.27249
