21
gdb 108593	2.47512	1.42352	1.21359	1.3178	78.28	-0.2449	0.0827	0.3275	1153.735	0.18207	-424.205016	-424.195837	-424.194893	-424.23871	34.267	
C	 0.2309312806	 1.3062667332	 0.1546227812	-0.254712
O	-0.1700345606	-0.0031019135	-0.2091338804	-0.283056
C	 0.5582982991	-0.5384573119	-1.2652293603	 0.388796
C	 0.1847282706	-0.1002759934	-2.6779528039	-0.151634
O	 0.5464625332	-1.175307561	-3.5371272956	-0.256157
C	 0.5194782645	-2.3984364443	-2.7961331955	-0.094402
C	 0.7759038963	-2.0244137942	-1.350834249	-0.167218
C	 1.943046234	-1.0985874808	-1.0310856071	-0.074578
C	 3.1385077516	-0.8796202094	-1.9361674136	-0.429707
H	 1.2950432343	 1.3412955689	 0.4270938964	 0.110522
H	 0.0538482652	 2.0318070297	-0.65220901	 0.111005
H	-0.3692608685	 1.593514618	 1.0209838949	 0.12797
H	-0.8990899088	 0.0975441109	-2.6979524786	 0.10009
H	 0.708144387	 0.7901713616	-3.0428675781	 0.103946
H	-0.4604572563	-2.8931332862	-2.8860686607	 0.098421
H	 1.2754949203	-3.0556937577	-3.2394281171	 0.107934
H	 0.4014439307	-2.6736556999	-0.56816698	 0.098132
H	 2.1874611214	-1.1229416173	 0.0290405379	 0.090783
H	 2.846730675	-0.8397505836	-2.9872174632	 0.145412
H	 3.6479862588	 0.0576567157	-1.6866927994	 0.112854
H	 3.8663070317	-1.6900207548	-1.8170174879	 0.1156
