17
gdb 17498	3.03361	2.48648	1.67385	2.5652	67.62	-0.2158	0.0692	0.285	812.279	0.140947	-363.771616	-363.764156	-363.763212	-363.802658	29.581	
C	 0.1106568487	 1.4655125779	-0.011148041	-0.476002
C	-0.0623042644	-0.0223631064	-0.07853466	 0.255184
C	-0.9825677168	-0.8124481005	 0.7672631048	-0.299413
N	 0.4782407975	-0.9372579234	 0.990814663	-0.173542
C	 1.115196549	-1.7715472911	-0.104774259	-0.056302
C	 0.2207718912	-2.3030215148	-1.2086232975	-0.37496
C	 0.63625765	-0.8586543714	-1.1916241997	 0.327881
O	 1.3743327125	-0.2558156188	-2.1926731357	-0.446212
H	 1.1339139924	 1.748541819	-0.2749213793	 0.136911
H	-0.5681378775	 1.9729109145	-0.7069460774	 0.113758
H	-0.1018878189	 1.8270203578	 0.9987425856	 0.126694
H	-1.4681823258	-0.2865925164	 1.5855700576	 0.118902
H	-1.5607170854	-1.6459203633	 0.3857771977	 0.115644
H	 2.0888013137	-2.1948884917	 0.1043005359	 0.110894
H	 0.791218181	-2.8827646246	-1.9291913084	 0.120836
H	-0.7947801046	-2.6585198541	-1.0705064219	 0.111701
H	 0.8133968773	-0.1655807926	-2.9713783546	 0.288025
