17
gdb 79943	2.13394	1.79228	1.45938	2.9412	74.48	-0.2454	-0.0632	0.1821	992.9048	0.135388	-421.84094	-421.832779	-421.831835	-421.873247	31.499	
C	-0.1153637525	 1.5692561307	-0.0754794347	-0.426172
C	 0.0397711856	 0.0698104291	 0.0313545692	-0.063291
C	 1.3417333814	-0.7180551802	-0.2070843584	-0.19689
C	 2.6096200393	 0.057375183	-0.0510834308	-0.054608
C	 2.7944887774	 0.5038787928	 1.2033511985	-0.201965
C	 1.6851665035	 0.0202762311	 2.0571946521	 0.319775
O	 1.5556151006	 0.0797710386	 3.2617731007	-0.355109
C	 0.7073163452	-0.7061015433	 1.155410801	 0.313131
O	 0.057134316	-1.7844158739	 1.7343933155	-0.475029
H	 0.7823694833	 2.1054154219	 0.2396868763	 0.125993
H	-0.3359746649	 1.8600562442	-1.1084660337	 0.121349
H	-0.9467237415	 1.9104465142	 0.5501581361	 0.130819
H	-0.826319362	-0.487353872	-0.3225477746	 0.110073
H	 1.3067862785	-1.5821880521	-0.8597893266	 0.111409
H	 3.2663014268	 0.2677519025	-0.8886119096	 0.122224
H	 3.6102997194	 1.1101163242	 1.5733685011	 0.122737
H	 0.0806581138	-1.6102548109	 2.6870701179	 0.295552
