20
gdb 64779	3.4814	1.05909	0.99715	3.3542	78.38	-0.2804	0.0244	0.3048	1265.1966	0.171691	-403.186355	-403.177371	-403.176426	-403.220549	33.906	
O	-0.1439185058	 1.282607496	 0.2097882932	-0.475837
C	 0.0413411525	-0.1179951384	 0.0227174662	 0.394206
C	 0.8234518506	-0.3629874193	-1.2918849308	-0.396512
C	 2.1242449618	 0.3024073082	-1.2686233872	 0.250415
N	 3.13611237	 0.8575336136	-1.1994418178	-0.314558
C	 0.6887836131	-0.7508198076	 1.2704145882	-0.244386
C	-0.4715792216	-0.7883921154	 2.2743000113	-0.200365
C	-1.6720086422	-1.2472861559	 1.4183707469	-0.206777
C	-1.3767968105	-0.7349519119	-0.0192225736	-0.237406
H	 0.7214170061	 1.684947264	 0.3549667069	 0.290281
H	 0.9698192293	-1.4349015422	-1.4611140453	 0.146455
H	 0.2445390651	 0.0329515768	-2.1330489596	 0.157354
H	 1.0238036237	-1.7698375244	 1.0370310129	 0.096005
H	 1.5630233905	-0.1891892411	 1.6139661202	 0.106724
H	-0.2803203267	-1.4436994204	 3.1277117896	 0.095193
H	-0.6464908075	 0.2206506774	 2.6589415563	 0.114419
H	-1.7368255691	-2.340293526	 1.419766066	 0.100631
H	-2.6235780866	-0.874032173	 1.8041161934	 0.105307
H	-2.0779434185	 0.035676219	-0.3468216315	 0.122962
H	-1.4231026844	-1.5508404592	-0.7465544852	 0.095888
