18
gdb 68616	2.46711	1.65417	1.37418	4.5618	76.01	-0.2568	0.02	0.2768	1014.4498	0.148618	-401.95183	-401.944034	-401.94309	-401.983879	30.52	
C	 0.0115491813	 1.5058747307	 0.0865665004	-0.493412
C	-0.0305547131	 0.0113925812	-0.0460807443	 0.433952
C	 0.3195330423	-0.7963928977	-1.325755068	-0.280114
C	-0.3649282464	-1.9392463597	-0.5177467087	-0.087153
C	 0.5850639513	-2.0265388755	 0.6803902583	-0.090538
O	 0.7695016309	-0.6188798441	 0.9613969248	-0.299728
C	-1.3617685995	-0.8344626244	-0.0141424489	-0.208909
C	-2.0661225585	-1.0021007654	 1.2425212614	 0.284308
N	-2.6244967101	-1.1368895878	 2.2462377942	-0.337858
H	 1.0405407981	 1.8630361349	-0.0154114837	 0.137294
H	-0.6013367087	 1.9798896439	-0.6846523332	 0.12203
H	-0.3602435302	 1.8099217292	 1.0692922447	 0.147562
H	-0.2485343083	-0.490921884	-2.2058579285	 0.108239
H	 1.3808422808	-0.9028004132	-1.5582662555	 0.110461
H	-0.7178526542	-2.8651219182	-0.967618023	 0.091842
H	 0.1534645052	-2.5260286206	 1.5534458608	 0.129695
H	 1.5442431768	-2.49267271	 0.4303374615	 0.10933
H	-2.0543705877	-0.5312744792	-0.8011242921	 0.123001
