13
gdb 4402	3.85757	2.09468	1.35803	5.5615	67.38	-0.2093	-0.0388	0.1705	838.3976	0.097308	-394.81954	-394.812733	-394.811789	-394.850552	25.679	
N	 0.0828558953	 1.3286830525	 0.1119361919	-0.564829
C	-0.0507346662	-0.0158646545	 0.0398972722	 0.495787
C	-1.2268392966	-0.7204319056	 0.0211386401	-0.291562
C	-1.0919555545	-2.126901246	-0.0145808657	 0.03163
N	 0.0387639566	-2.7784756583	-0.0301614589	-0.332898
C	 1.2078488904	-2.0560124793	-0.0107352156	 0.425317
N	 2.3985834681	-2.483984656	-0.0186262355	-0.534005
O	 1.1273560284	-0.6336253437	 0.0180732828	-0.230644
H	 0.995209701	 1.716141097	-0.0661267748	 0.280049
H	-0.7171839238	 1.9096020642	-0.0684688432	 0.275888
H	-2.1868688204	-0.2262037234	 0.0385257082	 0.096906
H	-1.9954732915	-2.7365448321	-0.0323058502	 0.115909
H	 2.3624748531	-3.5016048047	-0.0422193814	 0.232453
