16
gdb 64546	4.12205	1.08613	1.04862	1.9121	72.81	-0.2653	-0.0471	0.2182	1156.9004	0.122481	-437.863838	-437.855566	-437.854622	-437.896804	30.577	
C	-0.0565912563	 1.5613479156	 0.1842332111	-0.472593
C	-0.0055644867	 0.0525235246	 0.1616134261	 0.167813
C	-1.232010832	-0.6337865512	-0.3470844214	 0.12692
O	-2.2134798143	-0.0571773151	-0.7410967395	-0.254263
C	 1.2488794545	-0.7402318309	-0.1332969068	 0.043644
O	 2.4154115862	-0.0209497641	 0.3233137158	-0.267986
C	 1.9631948391	-0.1421318566	 1.6448085636	 0.447965
N	 2.5151720671	 0.1637079959	 2.7235203823	-0.545949
C	 0.6850499868	-0.812206696	 1.2554929584	-0.255115
H	 0.9154009913	 1.9872369497	 0.435039407	 0.141108
H	-0.3617822956	 1.9349664152	-0.7966418406	 0.140934
H	-0.7939807177	 1.9069759076	 0.9132893404	 0.140661
H	-1.1795145119	-1.7474444086	-0.3455091926	 0.074926
H	 1.3928126662	-1.4790167439	-0.909964008	 0.138011
H	 3.4352211576	 0.5796874317	 2.5704902634	 0.239197
H	 0.1736867157	-1.5949760138	 1.7964792808	 0.134727
