15
gdb 44407	3.77203	1.51951	1.49827	3.1859	70.57	-0.2302	-0.0277	0.2025	902.947	0.114161	-416.680634	-416.674215	-416.673271	-416.71119	26.555	
O	-0.1863982176	 0.0392712062	-0.3047112198	-0.314766
C	-0.0940911118	 1.2061783413	-0.0972026626	 0.333206
N	-1.074801151	 2.2559069221	-0.0629255489	-0.36305
C	-0.1973331025	 3.0709162442	 0.7977100978	 0.051559
C	 0.8807276972	 4.2539873582	 0.6994359865	-0.127143
N	 1.8429669939	 3.1206493188	 1.1643311816	-0.38066
C	 0.9787332271	 2.3389350524	 0.176709769	 0.078688
C	 1.2005271328	 3.0926373155	-1.1587740708	-0.111397
C	 1.1433209187	 4.3728552294	-0.7906383884	-0.069678
H	-2.0532939411	 2.0667676715	 0.1188366213	 0.252588
H	-0.3426579527	 2.8356107405	 1.8538157735	 0.116459
H	 0.8369228252	 5.1358929843	 1.3382814212	 0.08329
H	 2.7763951969	 3.2797255087	 0.7795688309	 0.215031
H	 1.3354403765	 2.6270069024	-2.1237440797	 0.119441
H	 1.2079558383	 5.2831520745	-1.3684003116	 0.116431
