19
gdb 92135	2.91321	1.78486	1.59157	2.0454	73.04	-0.2313	0.0828	0.3141	935.8938	0.162016	-423.031751	-423.024806	-423.023862	-423.063016	28.613	
C	 0.3033945958	 1.5121131827	-0.0511077804	-0.386862
C	-0.0498067172	 0.0304824274	 0.0403203056	 0.120347
O	 0.3664312463	-0.6020037968	-1.1866879084	-0.282039
C	 1.1977156553	-1.720684536	-0.9991242156	 0.168793
C	 0.4996254918	-2.7755037215	-0.1184733983	-0.254234
C	 0.7231269205	-2.1597001621	 1.2518233262	-0.136849
C	 1.9334879315	-1.2779282894	 1.0673877921	 0.097233
O	 2.3662434186	-1.3575290131	-0.2755190743	-0.251722
C	 0.5821040496	-0.6433101353	 1.2521885834	-0.108312
H	 1.388658322	 1.6412369792	-0.088663789	 0.130748
H	-0.128441249	 1.9437927945	-0.9581488315	 0.123238
H	-0.0894170302	 2.058484431	 0.8131475864	 0.10602
H	-1.1439863468	-0.0720498751	 0.105214059	 0.078572
H	 1.4995221038	-2.0517482165	-1.9927945055	 0.092464
H	-0.5483860592	-2.886513189	-0.4065320435	 0.112533
H	 0.9974326812	-3.7472004265	-0.1971085197	 0.108526
H	 0.5500130432	-2.7289506097	 2.1563936482	 0.089771
H	 2.7486751082	-1.173443143	 1.7713513588	 0.102055
H	 0.3729653246	-0.163879641	 2.2033423165	 0.08972
