21
gdb 59310	2.63924	1.20621	0.91184	4.1349	78.74	-0.2673	0.0138	0.281	1335.972	0.180906	-424.270554	-424.260658	-424.259714	-424.3054	36.18	
C	 1.0008787136	 1.4409901107	 0.2043508332	-0.394473
C	 0.4087167928	 0.0291572733	 0.0849342519	 0.010732
C	-1.1017804333	 0.0359872814	 0.3628035478	-0.401229
C	 0.6904855699	-0.5443915652	-1.2969534769	 0.134976
O	 2.1343510171	-0.5432005327	-1.6088193213	-0.259718
C	 2.148689139	-1.8960217304	-1.815913261	 0.451625
O	 3.0823300898	-2.5822159475	-2.0861324433	-0.329646
C	 0.650410226	-2.0775725426	-1.5640410948	-0.215698
C	 0.2648369353	-3.090878175	-0.4915700169	-0.417516
H	 2.0749818173	 1.4345271989	 0.005629539	 0.140683
H	 0.5282464185	 2.1249151018	-0.5106830286	 0.113759
H	 0.8361176846	 1.8430688414	 1.2086801521	 0.113996
H	 0.9033207432	-0.6113520042	 0.8262406149	 0.08173
H	-1.6297283377	 0.6613989045	-0.3665781999	 0.118693
H	-1.535985168	-0.9668794255	 0.3212688483	 0.119716
H	-1.3049527332	 0.4465077195	 1.3563547804	 0.122683
H	 0.1710037327	 0.043149521	-2.0621971214	 0.090756
H	 0.1346229306	-2.3113816018	-2.500595454	 0.114559
H	 0.7247004756	-2.8661548512	 0.4743660724	 0.132445
H	-0.8189579513	-3.1384760215	-0.3555256557	 0.128014
H	 0.6093913477	-4.0831264648	-0.7973377862	 0.143913
