16
gdb 123999	3.73312	1.5929	1.14225	2.8007	77.89	-0.1948	-0.0019	0.1929	1014.0835	0.12923	-396.953236	-396.946477	-396.945533	-396.984267	26.995	
C	-0.0146503793	 1.5212517939	-0.0102825427	-0.233972
N	 1.3249749408	 2.1539537459	-0.0856857259	-0.420265
C	 2.2154841887	 1.3832081978	-0.8335705929	 0.360853
C	 2.0866295596	 0.0315432039	-1.1194859027	 0.180229
C	 3.2368533694	-0.2655712105	-1.8887202527	-0.129471
N	 4.0137568985	 0.7992138911	-2.0604284244	-0.230577
N	 3.3653051027	 1.8005861755	-1.4049491578	-0.290362
C	 0.9865222354	-0.6958756475	-0.5168166755	-0.162743
C	 0.0038957402	 0.0049145411	 0.0693540123	-0.115459
H	-0.5354166138	 1.9547210867	 0.8475426986	 0.112731
H	-0.5776664426	 1.833219144	-0.9038688163	 0.124388
H	 1.6911780926	 2.3781228055	 0.8344324127	 0.238028
H	 3.5318739746	-1.2110879565	-2.3213965555	 0.109161
H	 3.749764217	 2.730115351	-1.4165292093	 0.270087
H	 0.9956337397	-1.7810554736	-0.5028720621	 0.094752
H	-0.8213720535	-0.4861879382	 0.5741514843	 0.09262
