18
gdb 39892	2.80147	1.82892	1.62023	0.2658	75.09	-0.2301	0.0044	0.2344	911.5774	0.150372	-401.906472	-401.899738	-401.898794	-401.937192	28.122	
C	-0.0123074034	 1.4812356021	-0.0187321241	-0.33358
N	 1.2401008805	 0.6802674505	 0.062099377	-0.395645
C	-0.0442058747	 0.0108516955	 0.0095558908	 0.430237
C	-0.5358059434	-0.9269291539	 1.1228450272	-0.18311
C	-2.0312511978	-0.9873062271	 0.6856008673	-0.069412
O	-1.978094303	-0.9757835117	-0.7509992607	-0.281054
C	-0.5643932514	-0.9006001021	-1.0963525354	-0.036975
C	 0.0710588724	-2.2215636545	-0.6913310104	-0.084204
C	 0.0831444753	-2.2312943906	 0.6478402944	-0.069613
H	-0.2357549298	 2.0585293613	 0.8747654263	 0.119335
H	-0.2532132457	 1.9829632871	-0.9528819138	 0.115945
H	 1.6982121015	 0.6522635424	-0.8461704461	 0.231401
H	-0.3606430104	-0.6256223606	 2.1539986996	 0.079006
H	-2.5402792727	-1.892567815	 1.0345362344	 0.099137
H	-2.5834901183	-0.1059786087	 1.0346188413	 0.100842
H	-0.4826181863	-0.5750020532	-2.1327807818	 0.072476
H	 0.3401461387	-3.0224396604	-1.3670850385	 0.102738
H	 0.3745048686	-3.045286131	 1.2994148124	 0.102476
