18
gdb 34595	3.5101	1.3031	1.12014	4.7403	83.48	-0.2545	-0.0416	0.2129	1110.5977	0.150871	-364.833418	-364.826287	-364.825342	-364.864906	28.692	
N	 0.0485450182	-1.1480373188	 0.0259665494	-0.343566
C	-0.0129259705	 0.0092530424	 0.0187355149	 0.185604
C	-0.041324301	 1.4331594823	 0.0084191808	 0.201344
C	-1.1884296843	 2.1304824949	 0.0369287361	-0.136626
C	-1.1293907604	 3.6360061028	 0.0233841851	-0.256745
C	 0.3300355934	 4.1215064504	-0.0236442082	-0.022686
C	 1.1202660621	 3.3326439449	-1.1097363135	-0.219835
C	 1.2679329767	 2.2120203395	-0.0364597979	-0.111449
C	 1.1835199981	 3.3493787076	 1.0259973698	-0.219834
H	-2.1524778032	 1.6336263416	 0.0693737041	 0.116006
H	-1.6930164141	 4.0195058896	-0.8389363544	 0.120091
H	-1.6411747418	 4.033220701	 0.9114384921	 0.120091
H	 0.3847608073	 5.2119563397	-0.033809454	 0.069274
H	 0.613254471	 3.0770562122	-2.0435134449	 0.10187
H	 2.0806083417	 3.8065124367	-1.3263429779	 0.105034
H	 2.1409267963	 1.560904392	-0.0572133226	 0.084526
H	 2.1547777903	 3.8261348445	 1.1779478135	 0.105033
H	 0.7327745502	 3.1086770967	 1.9920288976	 0.101869
