19
gdb 51615	5.05081	0.78814	0.75132	3.4974	77.32	-0.2365	-0.0227	0.2137	1529.5365	0.157076	-423.001293	-422.992312	-422.991368	-423.036452	32.665	
O	-0.3494065609	 0.4112624541	 0.5791294017	-0.239803
C	 0.2762237606	 0.8833552444	-0.3358338464	 0.154279
C	 1.4286515968	 1.854143101	-0.1746554823	-0.293284
C	 1.2248438752	 3.124436928	-0.9965977152	 0.131378
C	 2.4449958513	 4.0534918063	-1.1922674082	-0.388613
C	 2.2571607108	 3.7324158804	-2.6708267933	 0.468518
C	 2.2807431435	 4.6315826103	-3.8607089464	-0.331919
C	 3.2541408615	 3.462900157	-3.745873257	-0.331637
O	 1.1607410351	 2.846501197	-2.4198999141	-0.320698
H	 0.0384461242	 0.6294066187	-1.3912674048	 0.098166
H	 1.5444476148	 2.0935650462	 0.887099491	 0.120885
H	 2.3424697096	 1.3577321305	-0.5290548924	 0.121935
H	 0.3170781001	 3.6468044211	-0.6692608879	 0.092492
H	 2.2941597195	 5.0962759516	-0.9079749424	 0.117651
H	 3.3732869385	 3.6843520688	-0.7496343841	 0.113723
H	 1.4662912277	 4.531511132	-4.5700723102	 0.127855
H	 2.6614567418	 5.6411701075	-3.742819743	 0.116026
H	 4.3010612976	 3.6720103545	-3.5497274185	 0.116248
H	 3.0732788823	 2.6021557405	-4.3809247866	 0.126796
