17
gdb 23525	2.50446	1.61115	1.26255	0.0656	77.14	-0.2235	-0.0022	0.2213	1041.1546	0.135291	-417.893232	-417.88527	-417.884326	-417.925435	31.144	
C	 0.0508648916	 1.4591696299	-0.2246669521	-0.337506
N	 0.0253534163	 0.0114082642	-0.0037335775	-0.090817
C	-1.1438071878	-0.4866574566	 0.8503616123	-0.14884
C	-0.7887149613	-1.9722763502	 0.9086409027	-0.066604
C	 0.5293737673	-1.9566621292	 1.1377616357	-0.071333
C	 0.8457895671	-0.4610959213	 1.1996864298	-0.140429
C	-0.3300923753	 0.0210667086	 2.0562280573	 0.485491
N	-0.4353186102	 0.7395540672	 3.0858044276	-0.31322
O	-1.791794587	 1.0556026704	 3.3525661866	-0.404024
H	 1.0124957579	 1.7219118368	-0.676366172	 0.12389
H	-0.7351717961	 1.7143872269	-0.9419914031	 0.124518
H	-0.0882237501	 2.0701656234	 0.681183267	 0.119906
H	-2.1503559295	-0.155791907	 0.6086677338	 0.093258
H	-1.4746332851	-2.7985033871	 0.7982236206	 0.116515
H	 1.2319723704	-2.7659191153	 1.266934273	 0.116767
H	 1.8684169321	-0.1070555933	 1.3090132626	 0.086656
H	-1.7147134402	 1.5838647226	 4.1539695356	 0.305772
