19
gdb 37332	3.18509	1.82259	1.75863	1.9059	75.54	-0.2482	0.0893	0.3376	873.8357	0.163506	-385.855017	-385.849053	-385.848109	-385.884854	26.829	
C	-0.0154227355	 1.5218088636	 0.1429733226	-0.307791
C	 1.3051186677	 0.8068760343	-0.0258455053	-0.028107
C	 0.0013903156	 0.0192893669	-0.0170680738	-0.028107
C	-0.0370600024	-0.6536323996	-1.4190732794	-0.086052
C	 1.4731377455	-0.9618215755	-1.6110417944	-0.205972
C	 1.9048063984	 0.5194579335	-1.4321485295	-0.086052
C	 1.0131349211	 1.2112948513	-2.469294512	 0.045061
O	 0.634237516	 0.4047546513	-3.593209546	-0.265517
C	-0.2448479772	 0.4513412509	-2.4608242298	 0.045061
H	-0.2280161074	 1.8848799926	 1.1440993469	 0.105935
H	-0.4073577303	 2.1619143329	-0.6361356585	 0.114442
H	 1.9853853768	 0.7756051855	 0.8176565456	 0.085142
H	-0.2790805145	-0.5923626467	 0.8329048273	 0.085142
H	-0.7234855835	-1.4983325303	-1.4848377035	 0.063086
H	 1.861118876	-1.5951380888	-0.8101943771	 0.089094
H	 1.7237991668	-1.3875798939	-2.5824631542	 0.113132
H	 2.9711730458	 0.7336278806	-1.5097141398	 0.063086
H	 1.0719507095	 2.279614735	-2.6526362671	 0.099208
H	-1.2196337086	 0.8952569263	-2.6372108422	 0.099208
