12
gdb 3749	7.43829	2.21865	1.72754	3.0677	51.91	-0.2323	0.0118	0.2441	682.1995	0.092289	-356.723059	-356.716928	-356.715984	-356.753048	21.817	
C	-0.0214300806	 1.4109468474	 0.0379590789	-0.317551
N	 0.0079022849	-0.0326430904	-0.0023071431	 0.059732
C	-0.1685655656	-0.8656821001	-1.0393160981	 0.013543
N	-0.0617754804	-2.1269087895	-0.649694636	-0.364196
C	 0.1881024997	-1.9894268385	 0.6787226917	 0.435414
O	 0.3698980372	-3.0391170367	 1.4901525565	-0.406296
N	 0.2435006935	-0.7500868307	 1.1357525525	-0.329215
H	 0.9401464312	 1.7982482417	 0.3847532231	 0.155993
H	-0.2224316481	 1.7856573226	-0.9674379239	 0.141732
H	-0.806271111	 1.7534994866	 0.7173164304	 0.155979
H	-0.3689560069	-0.521570932	-2.0430859255	 0.143845
H	 0.2851331161	-3.8273055402	 0.9402954735	 0.31102
