19
gdb 118714	3.55989	1.00989	0.9025	1.18	71.22	-0.252	0.0727	0.3247	1315.2633	0.158302	-460.081335	-460.072745	-460.071801	-460.114956	33.046	
O	-2.4510099609	 1.5056497676	-1.3393479142	-0.419092
C	-2.3460192782	 0.0912492857	-1.2906328193	-0.061303
C	-1.625886282	-0.393355418	-0.0249659803	-0.297831
C	-1.517334529	-1.9066117838	 0.0399694585	 0.480004
O	-0.7113607276	-2.319189648	-1.0229972607	-0.494325
C	-1.2883673021	-2.6814190335	 1.3868806224	-0.03097
C	-2.7439578849	-2.4162277137	 1.8194569036	-0.236236
C	-2.7505912274	-2.8384360532	 0.3376340443	-0.024376
O	-1.7682919782	-3.9079519735	 0.6837164851	-0.341627
H	-1.5652915228	 1.8605754069	-1.4649453252	 0.281971
H	-3.3770803363	-0.280212513	-1.2982720357	 0.107988
H	-1.8457297422	-0.3128749678	-2.1798106754	 0.114322
H	-0.6043568273	 0.0084589059	-0.0190234539	 0.102952
H	-2.1382111971	 0.016313966	 0.8479877861	 0.109854
H	-0.6789614979	-3.2848437714	-0.9436809764	 0.286672
H	-0.384683703	-2.7799458221	 1.989907934	 0.096728
H	-3.1458478941	-3.1724463709	 2.4929154942	 0.11765
H	-3.0482280221	-1.4053912597	 2.0908817225	 0.108838
H	-3.5844562469	-3.1262551437	-0.3038818998	 0.09878
