16
gdb 130687	3.24022	1.39099	1.05541	2.6407	71.57	-0.2132	0.0127	0.2259	1112.562	0.126337	-434.091416	-434.083785	-434.082841	-434.124273	28.604	
O	 0.0138602549	-0.0305420118	-0.3467355221	-0.437089
C	-0.0030438458	 1.1599915152	-0.1113919305	 0.483439
N	-1.1024109372	 2.0258677894	-0.0314661684	-0.372403
C	-0.6471414476	 3.2842042318	 0.2567200615	 0.062571
N	 0.6437286749	 3.3179138078	 0.3720339613	-0.244274
N	 1.0453353387	 2.021844087	 0.1480080185	-0.081653
C	 2.4224114932	 1.6328450943	 0.1872616757	 0.072627
C	 3.4889274071	 2.5652185515	-0.312002437	-0.282327
C	 3.3636935263	 2.2710504851	 1.1684672807	-0.282323
H	-2.0507871116	 1.7250144783	-0.1723399214	 0.280578
H	-1.2876701388	 4.1436571996	 0.3737855177	 0.154826
H	 2.4999453483	 0.5723025907	-0.0169060196	 0.135778
H	 4.3176165907	 2.1403502989	-0.8670549299	 0.119451
H	 3.1627600517	 3.5435483163	-0.6448115381	 0.135671
H	 2.9568660527	 3.0596905688	 1.7903984666	 0.135678
H	 4.1049404224	 1.6407257069	 1.6465522549	 0.119449
