19
gdb 39880	3.96061	1.51471	1.40081	1.5555	79.43	-0.2367	0.0905	0.3271	985.6072	0.161359	-385.825617	-385.819012	-385.818068	-385.856299	28.135	
C	-0.0204093251	 1.5438082106	 0.0611140525	-0.350906
C	 1.2855198901	 0.7656225526	 0.0068371231	-0.348072
C	-0.0325615113	 0.0565991339	-0.0142288253	 0.462282
C	-0.5394312961	-0.9911814166	 0.976878836	-0.041202
O	-1.9636941717	-0.926091885	 0.7796867971	-0.268731
C	-1.9751922789	-1.3781563901	-0.5857468596	 0.080372
C	-1.4654745363	-2.8301299085	-0.4482500207	-0.249739
C	-0.156289066	-2.1183564142	-0.0783768598	-0.051024
C	-0.5169465256	-0.9344417614	-1.0546096688	-0.185371
H	-0.2961541662	 2.01240411	 1.0003676556	 0.115984
H	-0.3111386845	 2.1078051135	-0.8195268817	 0.11173
H	 1.8676744627	 0.8072165805	-0.9084530619	 0.111502
H	 1.8854990697	 0.7181665789	 0.9105429799	 0.112335
H	-0.2844844309	-1.0133216993	 2.0354002282	 0.075681
H	-2.8997701728	-1.0937931261	-1.0846548264	 0.078242
H	-1.9732543808	-3.4633743669	 0.2832412261	 0.100795
H	-1.3732907995	-3.3397382494	-1.4115130226	 0.098711
H	 0.8261101812	-2.581105045	-0.0199033326	 0.075858
H	-0.274452488	-0.9122136276	-2.115378499	 0.071555
