21
gdb 103767	3.16723	1.11549	0.9784	2.109	78.86	-0.256	0.0696	0.3256	1297.7209	0.180777	-424.201814	-424.192265	-424.19132	-424.236239	35.86	
C	-0.2098648666	 1.6006180807	 0.2358641761	-0.461277
C	-0.2171124571	 0.0901695883	 0.1969096653	 0.223131
C	-1.4656141446	-0.5413799496	-0.3896174325	-0.114677
O	-1.5817680564	-0.2358977986	-1.7705843373	-0.418964
O	 0.9903826752	-0.5186322217	-0.3365357557	-0.336034
C	 0.6920875356	-0.702290398	 1.0394000983	 0.416229
C	 1.5926168462	-0.2292790027	 2.1867798832	-0.311416
C	 1.0847024927	-1.4485917759	 3.0131653885	-0.216001
C	 0.4861514583	-2.0653242725	 1.713626404	-0.314571
H	 0.779475043	 1.9827591009	 0.4941383386	 0.126304
H	-0.4950050721	 1.9940247845	-0.7441040074	 0.140019
H	-0.9332764406	 1.9708468852	 0.9710963778	 0.117776
H	-1.4490521956	-1.6271300184	-0.2236098075	 0.090684
H	-2.3630684571	-0.1377176435	 0.0919107183	 0.106489
H	-0.7624387643	-0.5391541812	-2.1798130917	 0.292959
H	 2.6496719017	-0.3130797376	 1.9181436255	 0.116157
H	 1.4115129505	 0.7685287721	 2.5931311305	 0.10564
H	 1.8441295485	-2.039289442	 3.5275186171	 0.106609
H	 0.3126805805	-1.1694162652	 3.7336870177	 0.107879
H	-0.5293095646	-2.4646163801	 1.7656644345	 0.106939
H	 1.137976817	-2.8235551146	 1.2696603867	 0.116123
