15
gdb 45910	2.86737	1.46112	0.99901	2.8067	69.94	-0.2575	-0.0818	0.1757	1111.3997	0.114136	-454.008502	-454.000802	-453.999858	-454.041274	28.658	
N	-0.091891	 1.3503786657	-0.1493754984	-0.500104
C	-0.0364690298	 0.0907758908	 0.0100149556	 0.386617
C	-1.2996272759	-0.7299978078	 0.1093850673	-0.278805
C	-1.1668204355	-1.8841288558	 1.1142203274	-0.330866
C	 0.0191170843	-2.7582591883	 0.7665769475	 0.311934
O	 0.0286380543	-3.9581594041	 0.8187042431	-0.262764
C	 1.3092694187	-2.0059120467	 0.3440350684	 0.311847
O	 2.3855675751	-2.5476111252	 0.2908224527	-0.312517
N	 1.1505943877	-0.6539129308	 0.0764757397	-0.375632
H	 0.8366894829	 1.7713496362	-0.2256170918	 0.214072
H	-2.1154113663	-0.0562000746	 0.3711862789	 0.15053
H	-1.5207631458	-1.1375868173	-0.8857775549	 0.141921
H	-0.9989937967	-1.4790709188	 2.1220827595	 0.144328
H	-2.0644921927	-2.5043464598	 1.1514677367	 0.141816
H	 2.0214208795	-0.1695820636	-0.1105001917	 0.257623
