18
gdb 20135	4.39113	1.67973	1.52583	2.2984	71.51	-0.213	0.0781	0.2911	890.7406	0.155434	-343.895776	-343.888775	-343.887831	-343.927165	27.356	
C	 1.1614715487	-0.9524447641	-0.4219134985	-0.22456
C	 0.0055320023	-0.1919716416	-0.9742877164	-0.222073
N	 0.5470172121	 0.1250228524	 0.3464826657	-0.093988
C	-0.1935218439	-0.2358580377	 1.5349381224	 0.070792
C	-1.3550102892	 0.7118116092	 1.9964376978	-0.249371
C	-2.2227302309	-0.533481822	 2.2028384247	-0.042584
N	-2.3937999219	-1.1402083076	 0.8646610317	-0.32359
C	-1.1683690647	-1.4352598804	 1.6565356751	-0.096866
H	 0.9716012392	-1.9780309592	-0.1086893365	 0.104242
H	 2.1720279981	-0.7667199879	-0.7760837678	 0.110597
H	 0.1759011175	 0.5719881766	-1.7286262702	 0.107799
H	-0.953739188	-0.6939698173	-1.0255935871	 0.146779
H	 0.536222713	-0.3243683746	 2.3474414061	 0.085258
H	-1.1183032398	 1.2668430368	 2.9056262973	 0.103648
H	-1.7302811021	 1.394269811	 1.2310775792	 0.114285
H	-2.9415104138	-0.7216982986	 2.9901035114	 0.094223
H	-3.0084603871	-1.9466586601	 0.9739281732	 0.227889
H	-0.9277155697	-2.456129405	 1.9297364817	 0.08752
