15
gdb 35298	3.33405	1.1397	0.99505	4.7755	78.03	-0.2574	-0.0102	0.2471	1183.5463	0.111924	-379.598238	-379.590286	-379.589342	-379.630874	30.099	
C	 0.0931935984	-1.1843978009	 0.0452904299	-0.379752
C	 0.0376660935	 0.0164483437	 0.0089753683	 0.190967
C	-0.0748517576	 1.4351920983	-0.0182241901	 0.178549
C	 0.2748409696	 2.2686694659	-1.1939595015	-0.262603
N	 1.1364669886	 2.3988773847	-0.009154681	-0.155405
C	 0.3553232955	 3.2888848989	 0.933088458	-0.099399
C	-0.8206636396	 2.2713542619	 1.0270891323	-0.323714
C	 1.0681714327	 3.52360735	 2.181864503	 0.291497
N	 1.6055250298	 3.7204762878	 3.1854716977	-0.316101
H	 0.1554966166	-2.2442912058	 0.0772211302	 0.201282
H	 0.7745566474	 1.7692931213	-2.0168356257	 0.146441
H	-0.3709900577	 3.0973109773	-1.4808410209	 0.120705
H	 0.1083473405	 4.2563066392	 0.4829163206	 0.129869
H	-1.815153928	 2.6287844378	 0.7511615012	 0.123763
H	-0.8631220998	 1.78324776	 1.9998291679	 0.153903
