19
gdb 121578	5.22052	0.5608	0.51289	4.2815	85.19	-0.2539	-0.0449	0.209	2167.7105	0.154697	-423.008323	-422.997109	-422.996165	-423.047788	36.708	
C	-0.0349398883	 1.4410065184	 0.0399603107	-0.384303
C	 0.0198456056	-0.0751633049	-0.0266203538	-0.028009
O	 0.6928608258	-0.4456115946	-1.2156152342	-0.224551
C	 0.8010284297	-1.8231135065	-1.379982953	-0.159855
C	 1.5359759845	-2.1478379507	-2.6762172496	 0.205984
O	 1.9548218733	-1.3058484903	-3.4349431542	-0.263791
C	 1.6873207988	-3.5708906777	-2.9167585398	 0.015729
C	 1.8140370828	-4.7541013186	-3.1184960764	 0.079996
C	 1.9732876819	-6.1753772074	-3.3733204427	-0.502602
H	 0.9748319104	 1.8603279605	 0.0433806094	 0.132075
H	-0.5692337078	 1.8426452274	-0.8253148644	 0.132065
H	-0.5504431644	 1.7630430558	 0.949679866	 0.113856
H	 0.5480031491	-0.4846413069	 0.8513338304	 0.08692
H	-0.9974671295	-0.5022772666	-0.0178912711	 0.086909
H	 1.3513786678	-2.3035165984	-0.5494553561	 0.111512
H	-0.1861147248	-2.3207614133	-1.4168611337	 0.111518
H	 2.5034368241	-6.3532322562	-4.3144603806	 0.163873
H	 2.540686088	-6.6545123172	-2.5680689349	 0.161349
H	 0.9988858331	-6.6722620129	-3.4331670419	 0.161324
