15
gdb 31902	3.81645	1.04989	0.82776	5.1434	79.21	-0.208	-0.012	0.196	1307.8169	0.113702	-416.849071	-416.840776	-416.839832	-416.882505	29.932	
C	 0.0103819785	 1.4248901657	-0.0289228472	-0.270683
O	 0.0089043116	 0.005929685	-0.0105048846	-0.257753
C	 0.5949016225	-0.6323730052	-1.0360797826	 0.440232
C	 0.7023508972	-2.0012887382	-1.2084447867	-0.261139
C	 1.3918987619	-2.2077771216	-2.4221805789	-0.220785
C	 1.6911795655	-0.9708861192	-2.9658139443	 0.20047
N	 1.1888570244	-0.00614488	-2.091708062	-0.406766
C	 2.3589598699	-0.6094358109	-4.1483624421	 0.194861
N	 2.9076160466	-0.2889360291	-5.1203447147	-0.358446
H	 1.0328380937	 1.8248997183	-0.0173244778	 0.132241
H	-0.5288582924	 1.8150582943	-0.9021768242	 0.132182
H	-0.5052357261	 1.7420828997	 0.8774775178	 0.156135
H	 0.3219759341	-2.7445694074	-0.5277944295	 0.11688
H	 1.6506558976	-3.155855484	-2.866367378	 0.124232
H	 1.2638459151	 0.9848170424	-2.2388353154	 0.278339
