17
gdb 11337	4.17577	1.49838	1.22689	1.6331	67.36	-0.2519	0.027	0.2789	1018.6332	0.141327	-401.015967	-401.00756	-401.006616	-401.049714	29.259	
C	-0.0236358724	 1.4324850164	 0.0580975568	-0.334481
N	 0.2290162371	 0.0033699131	-0.030293255	-0.320632
C	 0.668725063	-0.6181345188	 0.9674993037	 0.400956
C	 1.0018024158	-2.0934375706	 1.0198422609	-0.189965
O	 1.2195633936	-2.3557134894	 2.3966804947	-0.258191
C	 1.5009219683	-1.1248826341	 3.0312025655	 0.213363
C	 2.9902584347	-0.8926327146	 3.2299647921	-0.399864
O	 0.9393662788	-0.0993360981	 2.2061311039	-0.248082
H	 0.4843247856	 1.9348974989	-0.7723536166	 0.12564
H	-1.0967157717	 1.6157320451	-0.0705382289	 0.12798
H	 0.2985589438	 1.8912128796	 0.9997827819	 0.121796
H	 0.1757998742	-2.7101866851	 0.6582380518	 0.143242
H	 1.8920220177	-2.312122669	 0.4131687307	 0.125268
H	 0.9655697402	-1.1100859803	 3.9874384662	 0.102017
H	 3.5131576337	-0.9052107063	 2.2690796796	 0.126776
H	 3.1604952959	 0.0751971744	 3.7094629338	 0.13135
H	 3.4022509016	-1.6802334014	 3.8665332089	 0.132829
