14
gdb 24079	4.03697	1.05432	0.91746	4.9818	67.41	-0.219	-0.0041	0.2149	1214.4967	0.10256	-432.891763	-432.883974	-432.88303	-432.925287	27.784	
N	 1.6078575746	-0.3156469526	 0.7509146391	-0.287986
C	 0.7893054375	 0.4010626217	 0.3638891185	 0.263408
C	-0.2778780172	 1.2867512306	-0.131978194	-0.210493
O	-0.2981372062	 2.5437940344	 0.513053575	-0.257575
C	 0.6787866024	 3.4037656833	 0.1238338643	 0.399977
C	 1.7540771649	 3.3465921951	-0.7230046384	-0.211095
N	 2.3934716608	 4.5728737052	-0.7304145845	-0.244379
C	 1.7215695666	 5.3364554087	 0.0900285748	 0.014058
N	 0.6565290415	 4.6712542143	 0.6444189648	-0.33304
H	-0.1716116119	 1.4068967489	-1.2181616919	 0.164406
H	-1.2454601815	 0.8228372864	 0.0740879976	 0.171914
H	 2.1181100782	 2.5142076777	-1.3025736271	 0.12065
H	 1.9406251487	 6.365273526	 0.3314999947	 0.135854
H	-0.0199898885	 5.0184948702	 1.3037509971	 0.274301
