15
gdb 18554	3.86688	2.09529	1.69241	3.1246	61.51	-0.2609	0.0123	0.2732	781.457	0.121171	-399.80001	-399.793755	-399.792811	-399.830508	24.099	
N	-0.1635986711	 1.2423299551	-0.4623397374	-0.543412
C	-0.073872613	 0.0635756821	-0.0512343395	 0.405502
O	 1.0038777866	-0.6323971919	 0.4696132622	-0.273136
C	 0.2071093625	-1.8516417608	 0.6463018718	 0.085262
C	-0.1603737645	-2.1233096064	 2.0978137996	-0.244141
C	-1.3215235808	-1.1380544713	 2.3380087607	-0.095692
O	-2.0076503729	-1.0536473346	 1.0857444725	-0.247332
C	-1.0378852769	-1.121965696	 0.0730467562	-0.012728
H	 0.72472928	 1.7400947891	-0.3735328981	 0.229895
H	 0.6531070084	-2.6828419638	 0.1007921987	 0.099591
H	-0.5072781304	-3.1573088249	 2.1920324201	 0.118494
H	 0.6823145023	-1.9731181216	 2.7761176548	 0.124848
H	-2.0413165917	-1.4733588918	 3.0868358851	 0.119897
H	-0.9409923752	-0.150546937	 2.63377701	 0.117327
H	-1.5044526235	-1.4584089063	-0.8525178868	 0.115625
