23
gdb 69370	3.84133	0.94632	0.89384	0.3262	90.88	-0.2415	0.0927	0.3342	1443.345	0.205909	-351.120134	-351.111186	-351.110242	-351.153878	35.153	
C	-0.0811839383	 1.5694883483	 0.1776144395	-0.497051
C	 0.0397384315	 0.0796738603	 0.0329544626	 0.384616
C	-0.8270791304	-0.8918373487	 0.786550957	-0.339918
C	 0.6664859261	-0.9657902147	 0.9642859367	-0.100149
C	 1.3032162143	-1.6945926744	-0.2302053991	 0.023064
C	 0.6480890095	-0.6348532074	-1.184624709	-0.318204
C	 2.8096687193	-1.6968601531	-0.2425896532	 0.028587
C	 3.5778431336	-2.8495690986	 0.3551351454	-0.276813
C	 3.5675003688	-2.642210206	-1.1404762525	-0.278265
H	 0.8608564185	 2.0735578087	-0.0685691477	 0.11236
H	-0.8547720382	 1.9739248684	-0.4873361614	 0.116914
H	-0.3511718636	 1.8473327789	 1.2020481497	 0.114822
H	-1.3743236628	-0.4700338467	 1.6246476579	 0.103843
H	-1.3576926972	-1.68869755	 0.2675549355	 0.096938
H	 1.1365495567	-0.8312424443	 1.9327191223	 0.07782
H	 0.9404450488	-2.7216749413	-0.3701649323	 0.055142
H	-0.0610873662	-1.0053026441	-1.9332493442	 0.086476
H	 1.4073364173	-0.0343396324	-1.6943696008	 0.09807
H	 3.2541772811	-0.7128295088	-0.1073287711	 0.076249
H	 4.492044722	-2.6383258847	 0.8989813587	 0.108203
H	 3.0083528492	-3.6834310057	 0.7530586378	 0.110069
H	 2.9924289455	-3.337863447	-1.7432015114	 0.109099
H	 4.4745734745	-2.2883959367	-1.6179699004	 0.108128
