16
gdb 22322	3.55627	1.19701	0.9008	3.6273	82.7	-0.1942	-0.0482	0.1461	1244.8859	0.123886	-434.05008	-434.041326	-434.040382	-434.083437	32.356	
C	 0.0069962901	 1.4650576822	-0.0053065152	-0.500412
C	-0.0581617371	-0.0226047255	-0.0075907811	 0.360476
C	-1.1194238904	-0.8472055467	-0.1390547952	-0.312557
C	-0.6412698858	-2.2183687073	-0.0761672888	 0.365921
N	-1.4315212205	-3.2328090521	-0.1544963956	-0.2509
O	-0.7836833492	-4.4492300228	-0.077542666	-0.34332
C	 0.8540301896	-2.1441947313	 0.0914525082	 0.313816
N	 1.6777546926	-3.115822867	 0.1467309022	-0.518484
N	 1.1105782524	-0.7716150823	 0.1691722097	-0.408572
H	 0.6541821185	 1.8362427716	-0.8099694139	 0.136192
H	-0.9878855904	 1.8914402235	-0.1443656573	 0.146263
H	 0.4164031154	 1.8422967348	 0.9396819368	 0.140555
H	-2.1512084995	-0.5573253574	-0.2536191856	 0.109164
H	-1.5159619519	-5.072832194	-0.1462388545	 0.310139
H	 2.6350358089	-2.7727517364	 0.263088399	 0.204496
H	 2.0384908775	-0.3864662394	 0.1205875371	 0.247222
