18
gdb 67948	2.35836	1.80418	1.29401	3.6489	76.77	-0.2412	0.0037	0.2449	1026.0246	0.148616	-401.990285	-401.982447	-401.981503	-402.022388	30.835	
C	 0.010118279	 1.5667772865	-0.0311219895	-0.458022
C	-0.0014935214	 0.0477987305	 0.0296514778	 0.32348
N	-1.2686722005	-0.5239102944	 0.5639628102	-0.367736
C	-0.6553612531	-1.3269403197	 1.5008115345	 0.429919
O	-1.0677492976	-2.1914510469	 2.2271626136	-0.365434
C	 0.7311146697	-0.7067011099	 1.1970137097	-0.242381
C	 1.759317792	-1.6615130759	 0.56301635	-0.283857
C	 1.4544029633	-1.5651517248	-0.9155736752	-0.060115
C	 0.5275689621	-0.6518058579	-1.2029304202	-0.125132
H	 1.0160580753	 1.9359228798	-0.2538317661	 0.126139
H	-0.6588529922	 1.9325924318	-0.818570606	 0.117862
H	-0.3213384923	 1.9951760383	 0.9190621704	 0.125611
H	-2.1587194843	-0.6659695235	 0.104413737	 0.240132
H	 1.1209866235	-0.0855751753	 2.0041422466	 0.097326
H	 2.7900032269	-1.3537584243	 0.7787013904	 0.113331
H	 1.6558377579	-2.6841380264	 0.9446156542	 0.132906
H	 1.9530233702	-2.1934036315	-1.6464848006	 0.101599
H	 0.1681924214	-0.4142823765	-2.1990016768	 0.094371
