21
gdb 81008	2.51105	1.53109	1.23477	1.7742	77.83	-0.2409	0.0725	0.3134	1117.8266	0.181947	-424.215455	-424.206591	-424.205647	-424.248193	34.991	
C	-0.1197564152	 1.5176120794	-0.0396191777	-0.432028
C	-0.0669764233	-0.0015421681	-0.0090869588	-0.009402
C	 1.1632051151	-0.6326249013	-0.6988998059	 0.058415
O	 1.9535699626	-0.3666837247	 0.4957586358	-0.341364
C	 0.685551461	-0.6351962225	 1.2035608524	 0.409196
C	 0.6225413639	-0.1140482041	 2.6111922001	-0.500113
C	 0.5411876216	-2.1531214471	 0.949003602	-0.29771
C	 0.9174773151	-2.1484875302	-0.5695507046	 0.110924
O	-0.1158919031	-2.5448863521	-1.4534675581	-0.439298
H	 0.8608905649	 1.9468049058	 0.1822667603	 0.131692
H	-0.433870111	 1.8729627967	-1.0267090041	 0.114884
H	-0.8380917722	 1.9040851877	 0.6917491005	 0.111737
H	-1.0326591195	-0.4474605583	-0.2614329653	 0.078912
H	 1.5966850887	-0.2531520916	-1.6243971374	 0.074562
H	 0.7579827625	 0.9703656872	 2.6414319597	 0.128452
H	-0.3458886618	-0.3553474321	 3.0620991866	 0.120856
H	 1.4055965462	-0.5744412253	 3.2226547404	 0.127716
H	 1.2399779187	-2.7258339994	 1.5639997278	 0.099229
H	-0.4744768929	-2.5264773663	 1.110541846	 0.094835
H	 1.8410225586	-2.7073058093	-0.7645784188	 0.072095
H	-0.2416683899	-3.4939872543	-1.363642491	 0.286412
