21
gdb 121279	4.00273	0.89602	0.80592	1.416	78.67	-0.25	0.0839	0.3339	1465.8793	0.18332	-424.214455	-424.205597	-424.204653	-424.248471	33.381	
O	-0.0588566736	 1.4291844715	 0.007075407	-0.42389
C	 0.0050542725	 0.011649329	 0.0914238467	-0.075617
C	-1.417939332	-0.5219403714	-0.0176473411	-0.187425
C	-1.4830280807	-2.0432736551	-0.0364368632	 0.11152
O	-0.9123856077	-2.5465005093	 1.1773248996	-0.27217
C	-1.4276876367	-3.8533240744	 1.4124242887	-0.092613
C	-2.8356326672	-3.8436336654	 0.8427034979	-0.056926
C	-3.6701104656	-2.6370725558	 1.1872980058	-0.288417
C	-2.8739226915	-2.6604703645	-0.0937311607	-0.05921
H	 0.8249540146	 1.7766494179	 0.1567521012	 0.283957
H	 0.6213697448	-0.406881334	-0.7223273398	 0.077876
H	 0.4484814942	-0.3173316044	 1.0411455305	 0.106223
H	-2.0132633533	-0.1369727919	 0.8167474856	 0.108573
H	-1.8665825241	-0.1375654584	-0.941408884	 0.102917
H	-0.9037267626	-2.4194120241	-0.8996752272	 0.061364
H	-0.8188551547	-4.6189295615	 0.9037561803	 0.089474
H	-1.3751437623	-4.0333611785	 2.4916016539	 0.106444
H	-3.3111562598	-4.7862988056	 0.5993945734	 0.087773
H	-4.7465720695	-2.7341395714	 1.1030272635	 0.11019
H	-3.3339481187	-1.9952146662	 1.9953953404	 0.12267
H	-3.3841617359	-2.6999132466	-1.0488003786	 0.087287
