20
gdb 90905	3.43217	1.52455	1.43887	0.7609	84.52	-0.2105	0.0072	0.2177	1010.7192	0.171588	-365.897901	-365.890605	-365.889661	-365.928989	30.921	
C	-0.3728809831	 1.4974303523	-0.1191588845	-0.399177
C	-0.0211557109	 0.01856393	-0.0627853542	-0.077865
C	 1.2749753387	-0.3852157178	-0.8994994647	-0.206446
N	 2.0419292274	-0.1203652888	 0.3551687421	-0.070169
C	 2.7914805998	-0.8695374623	 1.4384257767	-0.082412
C	 1.7472851763	-0.1130214154	 2.4036512482	-0.28544
C	 0.8628721215	-0.4665379415	 1.132387719	 0.238082
C	 0.8973840672	-2.0326065287	 1.2501929864	-0.137693
C	 2.1915754568	-2.2813614812	 1.440968852	-0.075173
H	 0.5093521153	 2.1101393708	 0.0846265915	 0.131425
H	-0.7566960119	 1.7685401737	-1.1087517929	 0.111221
H	-1.144774183	 1.7473164779	 0.6165096404	 0.113312
H	-0.8993310968	-0.6049567363	-0.2566255423	 0.065867
H	 1.2274689863	-1.4348626147	-1.2180586058	 0.100289
H	 1.5657500054	 0.2552012722	-1.736499248	 0.098702
H	 3.8691206314	-0.7280804798	 1.5234833659	 0.072328
H	 1.5253100527	-0.5984607937	 3.356285784	 0.09512
H	 1.9583358406	 0.9523891617	 2.5117195139	 0.109255
H	 0.0459571743	-2.6990768839	 1.2229518071	 0.095181
H	 2.7206173418	-3.2102995847	 1.5993193953	 0.103595
