19
gdb 72726	2.65674	1.97863	1.57531	2.3446	75.09	-0.2295	0.0451	0.2746	922.1508	0.159509	-422.903194	-422.895967	-422.895023	-422.934182	30.282	
C	-0.0337791914	 1.5330979186	-0.0339657242	-0.453159
C	-0.0160868949	 0.0129035624	 0.0297104822	 0.444253
O	-1.2824373726	-0.3922776789	 0.7141127084	-0.359904
C	-0.4826699672	-0.5376218979	 1.9478289054	-0.219458
C	 0.7565632482	-0.7777688029	 1.0477797783	 0.144656
C	 2.0566238239	-0.3214017963	 0.2937067761	-0.353435
C	 1.0625990444	-0.6182149139	-0.95843311	 0.002289
O	 0.9137283663	-2.0097184906	-0.9298096145	-0.25549
C	 0.6565067854	-2.2198514774	 0.4754875147	-0.091994
H	 0.8107916372	 1.9552126595	-0.5840643471	 0.117451
H	-0.9492395151	 1.8154296868	-0.5644375742	 0.138803
H	-0.0737330492	 2.0002482891	 0.9553906184	 0.119187
H	-0.4878971573	 0.3898748105	 2.5282276978	 0.113505
H	-0.829546659	-1.3716182395	 2.5635294896	 0.116216
H	 2.33965627	 0.7191872065	 0.4286100233	 0.12036
H	 2.9300351541	-0.977003371	 0.3305754761	 0.112198
H	 1.2550796821	-0.2627118817	-1.9720676039	 0.086755
H	 1.4277925161	-2.8729386149	 0.9011142181	 0.097526
H	-0.3272287412	-2.6759832181	 0.6020017455	 0.12024
