15
gdb 19343	4.19665	1.83741	1.53084	2.8675	66.78	-0.2225	-0.0176	0.2049	828.4938	0.118864	-362.586934	-362.580378	-362.579434	-362.617577	25.626	
O	-0.1285098652	 0.0210237995	-0.0032704437	-0.28641
C	 0.0021650368	 1.225724535	-0.0321915213	 0.060025
C	 1.2804670286	 1.9184673381	 0.0410991672	 0.262331
C	 1.4231191617	 3.3941183471	 0.3745253764	-0.338322
C	 1.7855292832	 2.9739363485	-1.0012376409	-0.100683
C	 3.1212936842	 2.1871536381	-1.0726044568	-0.045955
N	 3.727000122	 2.1479558036	 0.282035397	-0.343534
C	 2.6477296632	 1.2001072164	-0.0833417716	-0.1232
H	-0.877967786	 1.9022803967	-0.1372843457	 0.06083
H	 0.4784610898	 3.9224802104	 0.462051196	 0.122811
H	 2.1917605715	 3.6822622056	 1.07985697	 0.158641
H	 1.2386670786	 3.2891777215	-1.8800026009	 0.112791
H	 3.7140510227	 2.0528656402	-1.9670049661	 0.104964
H	 4.6089801089	 1.6436788284	 0.2004391483	 0.23773
H	 2.7706219601	 0.1274432907	-0.0409268579	 0.117981
