23
gdb 36516	3.52403	0.92414	0.7802	0.7706	91.39	-0.2574	0.0562	0.3136	1516.5725	0.207094	-351.153957	-351.144853	-351.143908	-351.187734	35.816	
C	-0.1127971089	-1.241965814	 0.0208910067	-0.445169
C	-0.0801201296	-0.0399499737	 0.0142704756	 0.301732
C	-0.0165970028	 1.4169073249	 0.0193103526	-0.378262
C	 1.4215643375	 1.9817569233	-0.0275662629	 0.046214
C	 2.1549452911	 1.5972249112	-1.3232237568	-0.184477
C	 3.5730320891	 2.1826551915	-1.3707513026	-0.198492
C	 3.5590977676	 3.7062702495	-1.1834878664	-0.177086
C	 2.825132597	 4.1011049983	 0.1061086932	-0.204292
C	 1.4095919337	 3.5086955698	 0.1519854105	-0.192065
H	-0.1533917979	-2.3027612901	 0.025801972	 0.191485
H	-0.5855977906	 1.8106346597	-0.8344060874	 0.124544
H	-0.5210064512	 1.7941405831	 0.9188034617	 0.123805
H	 1.9730793481	 1.5438555364	 0.8168117859	 0.07879
H	 2.1837164004	 0.5072978715	-1.4227857716	 0.105314
H	 1.5784238007	 1.9747560997	-2.1811314982	 0.086517
H	 4.1796778065	 1.7254582718	-0.5766625649	 0.092786
H	 4.0556538078	 1.9195573389	-2.3188322875	 0.089581
H	 4.5821096039	 4.0991635454	-1.1741034749	 0.088704
H	 3.0548886352	 4.1708439056	-2.0426248342	 0.090563
H	 3.3955682019	 3.7372661482	 0.9720323129	 0.092872
H	 2.7794383579	 5.1919296408	 0.2011862335	 0.08973
H	 0.8016098517	 3.957616539	-0.6473893593	 0.089725
H	 0.9199643508	 3.771539639	 1.0979078321	 0.08748
