18
gdb 14176	3.91968	1.71161	1.68205	1.1363	67.49	-0.2424	0.0953	0.3376	878.087	0.153181	-384.920441	-384.912612	-384.911668	-384.952233	29.398	
C	-0.0241603023	 1.5795062193	-0.0115880645	-0.4492
C	 0.0460305084	 0.0697159234	-0.0248317272	 0.24898
C	-1.1261916107	-0.6317716436	-0.6856041779	-0.455594
C	 1.3856961663	-0.637997088	-0.1754119782	 0.007433
O	 2.5486354859	 0.1319160941	 0.0415676561	-0.254376
C	 2.7470970164	 0.1183100982	 1.4441877459	 0.019882
O	 1.4630698261	 0.0636857102	 2.0400167259	-0.254317
C	 0.669790062	-0.6830306924	 1.1425905162	 0.007375
H	-0.0761972706	 1.9691201383	-1.0342709039	 0.114802
H	-0.9201141736	 1.9159474853	 0.5217602293	 0.114808
H	 0.8454348702	 2.0204273099	 0.475135458	 0.134392
H	-1.2193322714	-0.3307313146	-1.7350982969	 0.122683
H	-1.014735144	-1.7211790406	-0.6617513179	 0.113391
H	-2.0653130062	-0.3832044642	-0.1786458668	 0.122683
H	 1.5128030959	-1.4845192961	-0.8435287375	 0.09744
H	 3.345578344	-0.7609443822	 1.7392577709	 0.091473
H	 3.2456251123	 1.0433480253	 1.7465877592	 0.120692
H	 0.2033443013	-1.5668430423	 1.5673610693	 0.097455
