19
gdb 34450	3.47439	1.45116	1.2222	1.0013	85.71	-0.2325	0.052	0.2845	1062.734	0.160836	-348.707159	-348.699755	-348.698811	-348.738598	30.656	
C	 0.0652207252	-1.1169347733	-0.0118470435	-0.368023
C	 0.024010785	 0.0859974687	-0.0166298389	 0.119071
C	-0.0466250839	 1.5162987216	-0.0010910522	 0.230381
C	-1.2318291797	 2.2007779197	 0.7024384284	-0.305953
C	-1.4304782192	 3.5195463634	-0.0891587599	-0.208476
C	-0.0871698555	 3.7238671728	-0.7993026619	-0.05979
C	 1.0934935359	 3.7519892355	 0.2296309896	-0.250734
C	 1.2998363846	 2.2612794202	-0.0310150594	-0.095041
C	 0.3784097519	 2.303854567	-1.2283286111	-0.108775
H	 0.1043028085	-2.1775935909	-0.0108690753	 0.179051
H	-2.1164372775	 1.5605968709	 0.6656777608	 0.110662
H	-1.0110660729	 2.3830241924	 1.7590425049	 0.106327
H	-2.2317792519	 3.4045177776	-0.8277397133	 0.100031
H	-1.6935708585	 4.3636575283	 0.5566828024	 0.096564
H	-0.0812184453	 4.5113905559	-1.5525483197	 0.070572
H	 1.940098611	 4.3334400121	-0.1445137053	 0.104848
H	 0.8632473628	 4.0774351701	 1.2504743577	 0.091953
H	 2.2171466266	 1.7001689275	 0.0998042992	 0.092755
H	 0.479757553	 1.8852237206	-2.2202233623	 0.094578
