14
gdb 45338	2.61171	1.84381	1.2332	4.9402	62.83	-0.2786	-0.0183	0.2603	959.5915	0.102496	-473.857421	-473.850566	-473.849621	-473.889166	25.698	
N	-0.0813599934	 1.2324357988	-0.4865939092	-0.520166
C	-0.0343561301	 0.0593029113	-0.0656120446	 0.439603
O	 1.0017668789	-0.6789048468	 0.4850509988	-0.265714
C	 0.1746976892	-1.8854445977	 0.5255363586	 0.088521
C	-0.183713717	-2.3073580258	 1.9444619768	-0.106178
O	-1.3600421503	-1.5724863197	 2.3083977751	-0.219866
C	-1.9527036699	-0.9672849299	 1.2382510406	 0.453567
O	-3.014612038	-0.4313139473	 1.3067041553	-0.319808
C	-1.0338659921	-1.0862896232	 0.0206420203	-0.325574
H	 0.8148108759	 1.7118402856	-0.3893087166	 0.2404
H	 0.6061204109	-2.6721387029	-0.0928438394	 0.116364
H	-0.4084124305	-3.3781838548	 1.9987943853	 0.129358
H	 0.6127863679	-2.0677122388	 2.6530028453	 0.146791
H	-1.5713711014	-1.3508673786	-0.8864091365	 0.142702
