17
gdb 126977	5.39935	0.70472	0.68198	3.3206	71.78	-0.243	-0.069	0.174	1663.6008	0.135307	-451.260685	-451.251865	-451.250921	-451.295887	30.565	
C	-0.056931861	 1.5331713505	-0.0365059569	-0.391754
C	 0.0744380361	 0.0150932065	 0.0243732831	-0.101744
N	 0.6251023413	-0.5077446398	-1.2248456821	-0.29337
C	 0.7276474504	-1.9614641391	-1.2459756811	-0.234517
C	 1.405341646	-2.411050683	-2.4976104041	 0.403212
N	 0.8042766881	-2.9429639012	-3.5227657598	-0.142271
O	 1.7845711996	-3.1686626681	-4.4242035618	-0.140539
N	 3.001258228	-2.7438816366	-3.8762939309	 0.04403
N	 2.7676970779	-2.2919536097	-2.7307570899	-0.185137
H	 0.9107596711	 1.9949375215	-0.2507056805	 0.134297
H	-0.7592543896	 1.8371675948	-0.8212148861	 0.116035
H	-0.4313758366	 1.9266668765	 0.912757559	 0.120877
H	 0.7620926747	-0.2665309429	 0.8322651098	 0.110241
H	-0.9035808943	-0.4358033541	 0.2766116913	 0.083009
H	 0.0485407224	-0.2026688149	-2.0039940858	 0.222754
H	 1.3424375642	-2.272575565	-0.3936312933	 0.1383
H	-0.2377112184	-2.4887466153	-1.1651301708	 0.116577
