13
gdb 11144	4.89054	1.48023	1.26541	3.8073	65.98	-0.2505	-0.0357	0.2148	921.3268	0.095656	-361.467361	-361.460299	-361.459355	-361.49884	26.268	
O	-0.0149168164	-0.0638430239	 0.008396743	-0.374045
C	 0.0182593884	 1.1456109536	 0.0371285833	 0.401537
N	-1.0732660427	 1.9953350393	 0.0703599961	-0.317635
C	-0.7084377295	 3.3985350506	-0.0052749175	-0.198916
C	 0.8115904237	 3.3206459726	 0.009453873	-0.060869
C	 1.209122749	 2.0515590653	 0.0497700205	-0.186882
C	-1.235788997	 4.0857688523	-1.1863489785	 0.332108
C	-1.6822913549	 4.6589449947	-2.142852654	-0.461609
H	-2.0039369562	 1.6632395792	-0.1205381462	 0.26123
H	-1.0523140493	 3.9382730963	 0.8917447322	 0.131057
H	 1.4167071504	 4.216641554	-0.0074786198	 0.133486
H	 2.2187781478	 1.6676623409	 0.074354362	 0.131527
H	-2.0727770433	 5.1597226451	-2.9945198841	 0.209012
