20
gdb 22174	2.21265	1.47349	1.10697	1.083	77.94	-0.2475	0.0047	0.2522	1180.4691	0.169447	-440.255188	-440.245761	-440.244817	-440.288954	35.563	
C	 0.0818968609	 1.5302692997	-0.0189696172	-0.420726
C	-0.0465487322	-0.0067768275	 0.0225848876	 0.182264
C	-1.5148236173	-0.4370715898	 0.0443520854	-0.436639
C	 0.7634051484	-0.6383267261	-1.1346787225	-0.112135
O	 2.1169875597	-0.6578669644	-0.6949554075	-0.258351
C	 2.1040685749	-1.0079505034	 0.6814346998	-0.163046
C	 0.7587817699	-0.5479949145	 1.193936829	 0.344981
N	 0.309778412	-0.5981370543	 2.3798571739	-0.230258
O	 1.2730100767	-1.1386805639	 3.2559507081	-0.396446
H	 1.1303409287	 1.8320559465	-0.0975705117	 0.129084
H	-0.4556779228	 1.9332614789	-0.8843383147	 0.112304
H	-0.3379493517	 1.9752598438	 0.887428258	 0.126579
H	-2.0384847344	-0.0682200403	-0.8443521369	 0.111145
H	-1.6090196292	-1.5269348438	 0.0706180266	 0.11602
H	-2.0186722523	-0.0373273492	 0.9281513823	 0.135038
H	 0.4052219536	-1.660839011	-1.3400127703	 0.087698
H	 0.7211075797	-0.0599049254	-2.0611938969	 0.110152
H	 2.2109879629	-2.0950759506	 0.829634723	 0.118686
H	 2.9428157615	-0.5208290607	 1.1876655035	 0.136327
H	 0.8099734208	-1.1315272539	 4.1003063306	 0.307322
