15
gdb 12591	3.46387	1.95635	1.30847	3.0007	63.76	-0.2198	-0.0139	0.2059	900.8403	0.118679	-399.841507	-399.833721	-399.832777	-399.873452	28.621	
C	 0.0583573212	 1.5005480265	 0.0539624477	-0.496751
C	 0.0198770254	 0.0114602346	-0.0037347971	 0.257009
C	-0.0894572594	-0.7835451586	-1.0733701849	-0.123155
N	-0.1169836843	-2.1562270581	-0.7222806101	-0.335763
C	 0.0954564771	-2.2992377663	 0.627563174	 0.39291
O	 0.3403534338	-3.3126077533	 1.2436354982	-0.378983
C	 0.0250032805	-0.8758246065	 1.2205368464	-0.060138
O	 1.0986735773	-0.6420059764	 2.1051201555	-0.433469
H	 0.9610142661	 1.8439839936	 0.5720413208	 0.146588
H	 0.0488355003	 1.9390674636	-0.9480390781	 0.121104
H	-0.7973797059	 1.905538343	 0.6093570989	 0.127339
H	-0.1816835194	-0.5089775964	-2.1151971426	 0.128448
H	 0.0343464854	-2.9126693042	-1.3707620919	 0.261644
H	-0.9435517966	-0.7815565967	 1.7475789958	 0.098134
H	 1.2603250984	-1.4846981248	 2.5518500973	 0.295084
