23
gdb 115075	2.90586	1.11721	0.86713	0.6636	94.65	-0.2094	-0.0177	0.1917	1417.9062	0.207325	-351.176683	-351.167463	-351.166519	-351.211041	35.272	
C	 0.1505130456	 1.5848437494	 0.0406532118	-0.394276
C	 0.0201786276	 0.0618447799	-0.0602060697	-0.169775
C	-1.4265336652	-0.4707093874	 0.0074753499	 0.022725
C	-2.2144598747	-0.1313984463	-1.2797893292	-0.261828
C	-3.7113812722	-0.1586663292	-1.1311775319	-0.08223
C	-4.4285424993	-1.1103595735	-0.5189186551	-0.063812
C	-3.9495569242	-2.3411364933	 0.103287087	-0.074766
C	-2.7013529652	-2.7193336979	 0.418448585	-0.071966
C	-1.399213554	-1.9789153835	 0.2987644302	-0.258669
H	 1.201716438	 1.8888943841	 0.0150234779	 0.112473
H	-0.3568270805	 2.1012415159	-0.780325904	 0.118436
H	-0.2793106991	 1.9542523476	 0.9784071679	 0.115755
H	 0.4858833692	-0.2896226623	-0.9917406654	 0.091863
H	 0.5993372014	-0.3915141342	 0.7541190621	 0.089905
H	-1.9318889256	 0.0260846231	 0.8463245732	 0.078594
H	-1.9215782561	 0.8616796696	-1.6341013806	 0.097179
H	-1.9064843358	-0.8300613087	-2.0728210389	 0.110502
H	-4.2515771243	 0.6809116136	-1.5622459581	 0.084618
H	-5.5097033231	-0.9892393733	-0.5066782318	 0.080389
H	-4.7369266844	-3.0582315076	 0.3285508331	 0.079571
H	-2.5921370663	-3.7147452162	 0.8470674402	 0.085379
H	-0.7811232092	-2.4820516737	-0.4626988867	 0.106624
H	-0.8483782327	-2.132531566	 1.2383164932	 0.103309
