18
gdb 43411	2.42156	1.7382	1.18783	3.6311	79.19	-0.2361	-0.0466	0.1895	1059.5409	0.15036	-401.95321	-401.945696	-401.944751	-401.985292	29.475	
O	 0.0735817248	 0.3200906772	 1.0169320613	-0.341863
C	-0.0382761269	 1.3119323935	 0.3154040127	 0.384646
C	-1.380453568	 1.7045977047	-0.1691352149	-0.144196
C	-1.7478691015	 2.5655400636	-1.1265814345	-0.033762
C	-0.9209328633	 3.4364744662	-2.0273301585	-0.254629
C	 0.473439352	 2.9276329373	-2.4132406004	-0.231954
C	 1.462864653	 2.8412901667	-1.2682469927	-0.023276
N	 1.1471830851	 3.5714133249	-0.0449932001	-0.334515
C	 1.2037770654	 2.0919705186	-0.0005736147	-0.129579
H	-2.1562783951	 1.1452183383	 0.3472596996	 0.105746
H	-2.821063074	 2.6616312794	-1.287862605	 0.102935
H	-1.4900259145	 3.6059567639	-2.9486695462	 0.103668
H	-0.8188065302	 4.4192553996	-1.549082031	 0.143227
H	 0.396874066	 1.9459368387	-2.8971091512	 0.113791
H	 0.881804367	 3.6121548058	-3.1667888887	 0.105417
H	 2.5047339808	 2.816977872	-1.5856116845	 0.093234
H	 1.9806109176	 3.9576045715	 0.3887494072	 0.24138
H	 2.0664589617	 1.6342390481	 0.4766073614	 0.099731
