17
gdb 8845	2.67102	1.74327	1.10707	1.487	66.9	-0.2493	-0.0446	0.2047	1070.0086	0.139744	-401.047496	-401.037975	-401.03703	-401.082658	32.056	
C	-0.2149609206	 1.5041509924	-0.4451525267	-0.332906
N	-0.4165462302	 0.0683206393	-0.4897369717	-0.308431
C	-0.5654700099	-0.6747079239	 0.6341367708	 0.405966
O	-0.4747046571	-0.2418290358	 1.768158948	-0.370393
C	-0.8047592366	-2.190235751	 0.3794818853	-0.195945
C	-1.0638964476	-2.9394344981	 1.6851360806	-0.401037
C	-1.8912255682	-2.448915888	-0.6531063627	 0.147797
O	-1.9118314448	-1.9774103157	-1.7658964477	-0.260754
H	 0.5998228504	 1.7983304582	-1.1140143096	 0.126714
H	-1.1199683405	 2.0509776793	-0.735847251	 0.128884
H	 0.043292756	 1.7740829517	 0.579165493	 0.16646
H	-0.6551847894	-0.374998394	-1.3667493979	 0.26301
H	 0.1218951284	-2.5549731103	-0.087330636	 0.137559
H	-1.1530392136	-4.0147897845	 1.5016953823	 0.11058
H	-0.251294057	-2.7669879524	 2.3908283048	 0.146841
H	-1.9852354217	-2.5896178256	 2.1593839254	 0.135321
H	-2.7006317479	-3.1335583018	-0.3186805569	 0.100335
