21
gdb 117007	4.87146	0.52869	0.48436	3.2956	91.85	-0.251	-0.0419	0.2091	2340.9737	0.179221	-387.096166	-387.084895	-387.083951	-387.134795	38.273	
C	-0.1074802256	 1.5996068006	 0.0665207488	-0.392628
C	 0.0055525284	 0.0754538409	-0.0136916986	-0.16331
C	-1.3572178704	-0.6161756852	 0.0032497613	-0.28051
C	-1.274860446	-2.1336069163	-0.0675373419	 0.201874
O	-0.2219020514	-2.734768604	-0.1288829127	-0.297293
C	-2.5501269727	-2.8246859572	-0.0558516248	-0.04962
C	-3.6203908359	-3.3845905615	-0.0448568806	 0.186078
C	-4.8895380493	-4.0991879476	-0.031859442	-0.326926
C	-4.7297808289	-5.6251343145	 0.0944443248	-0.366859
H	 0.8808377582	 2.0690551208	 0.0519089776	 0.115755
H	-0.6793658646	 2.0037431806	-0.7765838359	 0.112762
H	-0.6114424977	 1.9156231427	 0.9870163442	 0.112793
H	 0.5423708574	-0.2167437055	-0.9225237621	 0.112941
H	 0.6077525034	-0.3036992185	 0.8188314818	 0.113296
H	-1.9256944467	-0.3562344592	 0.907722787	 0.124594
H	-1.987767777	-0.2776736044	-0.8313238312	 0.124551
H	-5.5050730391	-3.7171401178	 0.7928111754	 0.139421
H	-5.4392699311	-3.8560097059	-0.9505223476	 0.140952
H	-5.7108300708	-6.1085751384	 0.0975796526	 0.119469
H	-4.1486865644	-6.0248046287	-0.7404295941	 0.136871
H	-4.2124338459	-5.8856732109	 1.021259448	 0.135789
