17
gdb 9046	4.64077	0.90365	0.78802	3.9163	75.11	-0.2735	0.0248	0.2983	1389.5167	0.140306	-326.715107	-326.70594	-326.704996	-326.749375	32.464	
C	-0.0778708041	 1.5761347052	 0.1036004337	-0.39146
C	 0.0246709943	 0.0391546058	 0.0217160056	-0.166356
C	 0.726471491	-0.4554348735	-1.2662885238	-0.176447
C	-0.0465989327	-0.0956698929	-2.5514048683	-0.355448
C	 0.5885303756	-0.646220265	-3.7465949151	 0.257659
N	 1.1031508471	-1.0865845273	-4.6827967969	-0.301179
C	 0.721542464	-0.4922437289	 1.1921300549	 0.306771
C	 1.3164676676	-0.9201343557	 2.1448221519	-0.44292
H	 0.9160563421	 2.0311873731	 0.0549129395	 0.132173
H	-0.6852228082	 1.9787588277	-0.7120015827	 0.117767
H	-0.5410317469	 1.8766504505	 1.0463198451	 0.135647
H	-0.9962667329	-0.3703475752	 0.0238382804	 0.109388
H	 1.7355926739	-0.0335434575	-1.3151688236	 0.130983
H	 0.8416357129	-1.541491462	-1.2128437101	 0.134719
H	-1.0729631281	-0.4787857384	-2.4973297746	 0.152334
H	-0.1209065777	 0.9895800071	-2.6754932304	 0.156948
H	 1.8318936819	-1.3035355832	 2.9904666443	 0.199422
