17
gdb 77102	3.24148	1.11724	0.92664	4.9806	74.	-0.2489	0.0296	0.2784	1243.4026	0.136126	-417.980726	-417.972213	-417.971268	-418.014019	31.846	
N	 0.4959089441	 0.984053645	-0.4698247108	-0.516452
C	-0.071020277	-0.28832438	-0.1153013987	-0.052131
C	-0.069394181	-0.6766551222	 1.4101069813	-0.151783
C	-1.4533520233	-1.3788544108	 1.2085936089	-0.338662
C	-1.5848816643	-0.5837212992	-0.0910646415	 0.428541
C	-2.6780240566	 0.2865370986	-0.5270592718	-0.271564
O	-2.3649412453	-0.9404025505	-1.207656963	-0.270177
C	 1.0383561677	-1.4686907993	 1.908068725	 0.274116
N	 1.9169975156	-2.1182192271	 2.2867858166	-0.325862
H	 0.614864477	 1.0726170102	-1.472480033	 0.245214
H	-0.0861677786	 1.754154755	-0.1566288661	 0.229918
H	 0.4369533212	-1.0732775963	-0.6842674264	 0.119825
H	-0.1746449478	 0.2266679877	 2.01765343	 0.123324
H	-1.3397060605	-2.448644565	 1.0186602397	 0.141147
H	-2.2000472676	-1.2243426208	 1.9880325463	 0.12639
H	-3.6191482445	 0.2899035064	 0.0210096559	 0.124329
H	-2.4605616492	 1.1941906784	-1.0891357723	 0.113828
