15
gdb 94132	1.95417	1.6033	1.26961	5.1456	70.1	-0.3083	-0.0471	0.2611	1068.437	0.111345	-416.800764	-416.791968	-416.791024	-416.834803	30.892	
C	-0.4097888118	 1.4121303786	 0.0209538706	-0.426318
C	 0.0618746555	-0.0253137421	-0.0886889756	-0.084442
C	 1.4052729296	-0.3234882678	-0.7875810005	-0.085533
O	 1.9020948618	-1.0474078373	 0.3712312603	-0.288185
C	 0.7530938166	-0.7045252831	 1.1578317534	 0.142426
C	 1.0961028478	 0.2097741852	 2.260022656	 0.28611
N	 1.3675432595	 0.962157086	 3.0931397639	-0.323005
C	 0.0609988588	-1.8896156913	 1.6834201474	 0.273795
N	-0.5115210869	-2.8213928445	 2.0544720608	-0.315881
H	 0.374467122	 2.0672522964	 0.4100765641	 0.149463
H	-0.7024994275	 1.7789055167	-0.967962778	 0.13598
H	-1.2799563911	 1.4946667959	 0.6787439216	 0.146413
H	-0.73957066	-0.6725005079	-0.4486279967	 0.127478
H	 1.3683215725	-0.9649466052	-1.6717656754	 0.133424
H	 2.0197376931	 0.5596634706	-0.9938219219	 0.128274
