17
gdb 73458	2.28256	1.9777	1.5855	2.1147	67.42	-0.2141	0.0592	0.2734	926.5654	0.135249	-458.9085	-458.900855	-458.899911	-458.940107	30.218	
C	-0.0012054968	 1.440566463	 0.0203554775	-0.481462
C	-0.0415384049	-0.0569769566	-0.0219118777	 0.387433
O	 0.9677122596	-0.6494572718	-0.815197746	-0.302419
C	 0.4906255461	-1.9345420953	-1.2351732309	-0.084535
C	-0.6545115888	-2.229263094	-0.282225761	-0.018443
O	-0.1057361108	-2.220576451	 1.0717539504	-0.29833
C	-0.4906529489	-0.8551568593	 1.220193028	-0.068601
C	-1.3131566764	-0.8366321144	-0.0534608859	 0.221954
O	-2.5379567954	-0.3658442848	-0.4594837113	-0.454729
H	 0.967045798	 1.7863361481	 0.3940628329	 0.133404
H	-0.1566284752	 1.8597798597	-0.97811532	 0.134828
H	-0.7859182869	 1.8257619666	 0.6773133776	 0.126275
H	 0.1433228542	-1.9018903192	-2.2801977732	 0.096409
H	 1.3066484375	-2.6573966407	-1.1453251156	 0.119769
H	-1.2650551921	-3.1105953482	-0.4862585659	 0.087317
H	-0.6144540323	-0.4549915954	 2.2205861956	 0.108576
H	-3.225814217	-0.8281057668	 0.0338719055	 0.292555
