20
gdb 77413	2.45479	1.64227	1.34058	0.6911	79.12	-0.2222	0.0682	0.2904	1056.7636	0.16956	-403.087121	-403.078134	-403.07719	-403.11997	34.8	
C	-0.009497018	 1.6049208388	 0.0284417914	-0.499817
C	 0.1030227091	 0.1066117451	 0.0400292593	 0.245414
C	 0.7083508809	-0.7559757501	-1.0342692485	-0.105597
C	 2.1517581148	-0.9838652557	-0.803190269	-0.243369
N	 1.1993424163	-1.7984711545	-0.0229026576	-0.163094
C	 0.6855361639	-0.9095010225	 1.045581318	 0.270563
C	 1.3836155233	-0.7736515959	 2.3616270335	-0.512754
C	-0.8083208289	-0.7902702741	 0.8531497188	-0.009519
O	-1.5274750107	-0.1084844523	 1.840186611	-0.432157
H	 0.9607904027	 2.0784241682	-0.1556276472	 0.113169
H	-0.6973515495	 1.9387005756	-0.7580246982	 0.119711
H	-0.3987209129	 1.9678124971	 0.9822414821	 0.139742
H	 0.2148778571	-1.0682232524	-1.950463994	 0.093251
H	 2.6898701534	-1.5654938858	-1.5457265393	 0.117691
H	 2.7455674373	-0.2287329437	-0.2934532411	 0.111569
H	 2.3989050845	-0.3787636688	 2.249006002	 0.121263
H	 0.8275431392	-0.0975089911	 3.0166230151	 0.128981
H	 1.4602690697	-1.7499269081	 2.8554172949	 0.127037
H	-1.3467798616	-1.6055004335	 0.3640727886	 0.086254
H	-1.6953354304	-0.7210643563	 2.5639604502	 0.291662
