21
gdb 92367	2.14505	1.96925	1.53995	1.3966	76.49	-0.2478	0.0801	0.3279	1006.1483	0.183686	-424.252969	-424.244795	-424.24385	-424.285146	32.718	
C	-0.2012253009	 1.5559507693	-0.0158028845	-0.410272
C	 0.0065462484	 0.043880328	-0.0300338781	-0.001455
C	 0.9203356427	-0.4914297188	-1.1792177709	-0.250676
C	 1.9761521384	-1.2763725464	-0.3728913677	 0.038211
C	 2.878586726	-0.2796618131	 0.3743995288	-0.086732
O	 1.9809310178	 0.2268483633	 1.3719185086	-0.309008
C	 0.7665344616	-0.5274560395	 1.2009352817	 0.469035
C	 0.0335968031	-0.6337743395	 2.5122767393	-0.477255
O	 1.2114786017	-1.7907183048	 0.7286919084	-0.281523
H	 0.7548637577	 2.0774223791	 0.0806562221	 0.128318
H	-0.6890828287	 1.8916981409	-0.9364434303	 0.111021
H	-0.8353160261	 1.8638415651	 0.8226957664	 0.11319
H	-0.9670572596	-0.4555101487	-0.0766372426	 0.075294
H	 0.3751250438	-1.1530287073	-1.8559357429	 0.10478
H	 1.3647045023	 0.3116585792	-1.7744147874	 0.09845
H	 2.4889534945	-2.0850427864	-0.8918761249	 0.083652
H	 3.7305844994	-0.7726558303	 0.8576807941	 0.102869
H	 3.2446937389	 0.5342151647	-0.2613963107	 0.098473
H	-0.2553306469	 0.3599800449	 2.8629410617	 0.13204
H	-0.8667061123	-1.2417874315	 2.3942852135	 0.126486
H	 0.6820187482	-1.0934258482	 3.2610705553	 0.1351
