19
gdb 1194	4.28212	1.71415	1.70186	0.3321	63.67	-0.2468	0.071	0.3178	861.9668	0.168315	-348.044714	-348.035382	-348.034438	-348.077932	33.275	
C	-0.0754142011	 1.3447187552	 0.120136677	-0.24256
O	 0.0293837119	-0.0503845066	-0.0438671078	-0.283275
C	 0.6969544638	-0.5289662667	-1.2185078087	 0.36952
C	-0.0405032101	-0.1171391939	-2.4997692416	-0.423053
C	 2.1677703044	-0.0925642158	-1.2552468651	-0.423381
C	 0.6073144282	-2.0521706376	-1.0292987849	-0.101988
O	 1.2343851692	-2.6902185898	-2.1317936748	-0.421492
H	 0.9038634109	 1.8385766499	 0.1911770882	 0.105235
H	-0.6476152203	 1.8255699928	-0.6857088493	 0.105202
H	-0.6085651718	 1.5058013213	 1.0609783775	 0.124119
H	 0.0783113914	 0.948301709	-2.7162125053	 0.108239
H	 0.3554060394	-0.6820163034	-3.3467569233	 0.137209
H	-1.1090254834	-0.3357069548	-2.4064893336	 0.113557
H	 2.6442221978	-0.2909536456	-0.2899359506	 0.1136
H	 2.6973761463	-0.6584043628	-2.0249978256	 0.137271
H	 2.273614599	 0.9720002198	-1.4825198604	 0.108303
H	 1.0953646244	-2.3113210381	-0.078621331	 0.091102
H	-0.4540187089	-2.3284655017	-0.949818318	 0.091176
H	 1.1720876489	-3.6402708013	-2.0032317928	 0.291217
