20
gdb 22481	2.75848	0.75233	0.67639	0.7631	87.49	-0.2427	0.0106	0.2534	1766.7606	0.167553	-403.093186	-403.082017	-403.081073	-403.131528	38.432	
C	 0.9325696806	 0.4686673191	-1.0607643333	-0.377771
C	-0.027672442	 0.0392626682	 0.0647074575	-0.265068
C	 0.704314627	-0.5818765081	 1.2262237182	 0.37167
C	 0.8205989592	-2.0928258463	 1.3135168763	-0.417468
C	-0.4768620281	-2.7613802748	 1.3942147452	 0.085092
C	-1.5537094804	-3.2962315765	 1.4580920582	 0.035499
C	-2.8507480686	-3.952439716	 1.544115242	-0.495625
N	 1.2893906021	 0.0617591845	 2.1616758306	-0.173204
O	 1.1714284136	 1.4540110738	 1.9959837747	-0.399583
H	 1.5031061507	-0.3824099566	-1.4469914823	 0.114838
H	 0.3738548014	 0.9020522552	-1.895660511	 0.115522
H	 1.640091213	 1.2161556934	-0.6943118683	 0.139123
H	-0.5756114485	 0.9148642757	 0.4233503728	 0.127802
H	-0.7583400174	-0.6803476127	-0.3161524003	 0.111642
H	 1.3617216697	-2.4573957297	 0.4276178737	 0.133353
H	 1.4377292687	-2.3370564767	 2.1840856019	 0.144384
H	-2.8766661961	-4.6739180891	 2.3682432022	 0.148863
H	-3.6525886923	-3.226032011	 1.7166903515	 0.14863
H	-3.0875964148	-4.4944305482	 0.621853912	 0.146355
H	 1.6213312122	 1.7864129157	 2.7795488584	 0.305946
