17
gdb 84232	2.9473	1.58418	1.34548	3.0412	74.62	-0.2182	-0.057	0.1611	1000.6623	0.134604	-417.859711	-417.851951	-417.851007	-417.891476	30.903	
C	-0.0447327286	 1.5447345557	-0.0270558028	-0.375704
C	 0.033060395	 0.0222455953	-0.0338606042	 0.020062
N	 0.9451615028	-0.3751647457	-1.1569711615	-0.155466
C	 1.6418796075	-1.3300677337	-0.6905940253	 0.032062
N	 3.0333853405	-1.0127253057	-0.3083041009	-0.333381
C	 2.3438218124	-1.0384415077	 1.0897970387	-0.12251
C	 0.7721390945	-0.6190008024	 1.1680859642	-0.10415
C	 1.2339218686	-1.9396927648	 0.7229025446	 0.311811
O	 0.7647382948	-3.1688776477	 1.1122563194	-0.456693
H	 0.9591999546	 1.9760349378	 0.0024146677	 0.133485
H	-0.5487543791	 1.9084245578	-0.926110668	 0.127323
H	-0.6041071655	 1.8860097055	 0.8513340243	 0.108051
H	-0.9821016225	-0.3984845165	-0.1009115662	 0.091859
H	 3.6133198892	-1.8592889901	-0.282341749	 0.21785
H	 2.968587336	-0.9508544483	 1.9736267346	 0.117419
H	 0.4333842194	-0.4675647843	 2.1916564825	 0.096314
H	 1.4191612603	-3.8412389752	 0.8902242117	 0.291669
