18
gdb 75442	2.51678	1.42154	1.16591	1.6038	78.5	-0.2423	0.0232	0.2656	1136.5412	0.147161	-401.937341	-401.928626	-401.927681	-401.970797	32.686	
C	 0.0736825927	 1.5038592421	 0.0470534518	-0.451752
C	 0.0104836387	 0.0137040122	-0.1124019884	 0.400992
N	 0.0862053916	-0.5503424572	-1.2433401352	-0.301622
C	 0.053327169	-2.0058651773	-1.3138717527	-0.1603
C	 0.4205179071	-2.6786132727	 0.0092446819	-0.244325
C	-0.3650669273	-1.9990589556	 1.1384670014	-0.063178
O	-0.1261169638	-0.5794565622	 1.1176904945	-0.263271
C	-1.8012405823	-2.2758633624	 1.0697744224	 0.359604
C	-2.9757958321	-2.5215802389	 1.009377417	-0.482091
H	 0.8873484648	 1.7782874098	 0.7260670237	 0.136031
H	 0.2313753236	 1.9674332391	-0.9257824599	 0.143754
H	-0.8557211756	 1.8766598089	 0.4894033054	 0.139269
H	-0.95030429	-2.3183355507	-1.6304425799	 0.122924
H	 0.739506425	-2.3236568508	-2.1062461322	 0.109518
H	 0.2046083934	-3.7503736969	-0.0045883939	 0.114791
H	 1.4881806348	-2.5490313314	 0.2165916942	 0.113422
H	 0.0110528844	-2.324187647	 2.1138671637	 0.119783
H	-4.015946584	-2.7321107089	 0.9616430562	 0.20645
