21
gdb 39504	2.34533	1.77757	1.21799	1.0788	78.33	-0.2193	0.0775	0.2968	1085.7032	0.184545	-424.194526	-424.186595	-424.18565	-424.226664	31.985	
C	 0.0621559193	 1.5105114039	 0.077827371	-0.367223
C	 1.3631165651	 0.7529104384	-0.0389076452	 0.065162
O	 2.1973111003	 0.8537535243	 1.0723225763	-0.244225
C	 3.1002652294	-0.2347813761	 1.2405659111	-0.065548
C	 2.4240489107	-1.5916276174	 1.4406821892	-0.210103
C	 1.3742913057	-1.6379034539	 2.5603528691	-0.19263
C	 0.1640640127	-0.7105318276	 2.3572589521	-0.072917
O	-0.4007366246	-0.8295901045	 1.0551226852	-0.263746
C	 0.0475136036	-0.0004173959	 0.0266980991	 0.11149
H	-0.0944965261	 1.9791646505	 1.0436985784	 0.129922
H	-0.3193753812	 2.0757264456	-0.7654258053	 0.113309
H	 1.8937282571	 0.7494332306	-0.9940805196	 0.082321
H	 3.7884862879	-0.2862828725	 0.3811901132	 0.08868
H	 3.6918070415	 0.03273587	 2.1229949699	 0.104828
H	 1.9575769342	-1.9152367943	 0.5045439967	 0.117719
H	 3.2142895139	-2.321620847	 1.6556280095	 0.096113
H	 1.0126857431	-2.6693694569	 2.6428880761	 0.101364
H	 1.8345814269	-1.3882756241	 3.5263561733	 0.091829
H	-0.6346471137	-1.0075193675	 3.0459677641	 0.09847
H	 0.4289474341	 0.3252061761	 2.5820691147	 0.114755
H	-0.2778662699	-0.4338443418	-0.9152042287	 0.100429
