13
gdb 128944	7.52752	0.75011	0.6916	2.4798	65.36	-0.263	-0.0516	0.2114	1473.6787	0.089869	-448.879543	-448.871737	-448.870792	-448.913509	26.901	
N	-0.0521021229	-1.1213195436	 0.3240495696	-0.277779
C	-0.0121390007	 0.0122565619	 0.1100971394	 0.262572
C	 0.0406988859	 1.4447349542	-0.1905467355	-0.281436
N	 1.327129498	 2.002495057	 0.2054415007	-0.394044
C	 1.5168030959	 3.3647312921	 0.1059503511	 0.407982
N	 2.6907201352	 3.893201568	-0.142002733	-0.183775
O	 2.4971146259	 5.2541555176	-0.0791713273	-0.144569
N	 1.2030411682	 5.5613752396	 0.1855310965	-0.052215
C	 0.5778761041	 4.4241254589	 0.3056373129	-0.093361
H	-0.1880486519	 1.5824838642	-1.2592681977	 0.163041
H	-0.7564248496	 1.9396265557	 0.3748074768	 0.173403
H	 2.126628346	 1.4707826352	-0.1130286759	 0.272106
H	-0.4773759639	 4.3945246592	 0.5255322724	 0.148075
