19
gdb 39263	2.47912	2.20911	1.53985	1.5156	73.74	-0.2424	0.0791	0.3214	916.5152	0.162469	-423.012688	-423.00599	-423.005046	-423.043361	28.308	
C	-0.0457128632	 1.4509480208	-0.0629111459	-0.413919
C	 1.337598297	 0.8162572036	-0.0143579598	-0.05377
C	 2.1915149323	 0.4174790327	-1.2086288032	-0.230306
C	 2.2829668093	-1.1345956826	-1.2300043585	-0.238639
C	 0.8917885174	-1.7538629859	-0.9212663624	 0.208126
O	 0.7502119615	-2.1346175057	 0.4605143601	-0.290737
C	-0.013837672	-1.096796834	 1.1072155631	-0.156638
C	 0.0825764608	-0.0225707807	 0.058069227	 0.3838
O	-0.0994522144	-0.7682593029	-1.1362777967	-0.268863
H	-0.3548545015	 2.0243810382	 0.804251228	 0.122924
H	-0.4312530363	 1.8177493391	-1.0089128282	 0.129356
H	 1.8694633003	 0.9505319079	 0.9237226227	 0.090078
H	 1.7382879857	 0.7666813419	-2.1399105238	 0.112357
H	 3.1902385444	 0.8590867005	-1.1534172966	 0.098427
H	 2.6326359796	-1.4821905678	-2.2079884876	 0.097609
H	 2.9959712231	-1.494194473	-0.4820559685	 0.11235
H	 0.6675602662	-2.6261139789	-1.5403247792	 0.087888
H	-1.0390143342	-1.4443790119	 1.2869096171	 0.102621
H	 0.458936114	-0.8318357913	 2.0569583926	 0.107334
