18
gdb 91282	2.91463	1.46001	1.18566	4.1646	72.83	-0.2503	0.0317	0.282	1074.2186	0.148986	-439.090743	-439.082895	-439.081951	-439.123492	30.248	
O	-0.0982476958	 1.4778434341	 0.0602443378	-0.420965
C	-0.0268006643	 0.0801809977	 0.0316366495	 0.138495
C	 0.3532071419	-0.7078951771	 1.3189615268	-0.300699
C	-0.8372246089	-1.6771499884	 1.0377334725	-0.041154
C	-1.9156482923	-1.77282196	 2.1089005878	-0.311815
C	-2.6924270817	-0.4804041044	 1.9396275067	 0.405469
N	-3.4916166246	 0.0151429599	 2.780299582	-0.538415
O	-2.4124406218	 0.0752857825	 0.7181193846	-0.234849
C	-1.3955990675	-0.638849794	 0.0174546772	 0.066321
H	 0.7984692816	 1.8271572166	 0.0737435947	 0.287666
H	 0.5637050206	-0.2840976257	-0.8232790805	 0.070178
H	 1.3535541656	-1.143489793	 1.361259111	 0.100851
H	 0.1851907193	-0.1056756453	 2.2163820171	 0.120929
H	-0.5390125624	-2.6347140075	 0.6120834938	 0.081347
H	-2.5891048558	-2.6187456897	 1.9308140934	 0.13062
H	-1.5334536375	-1.8632703858	 3.127196901	 0.136974
H	-3.8922801302	 0.8839673406	 2.4222803276	 0.223734
H	-1.7952321362	-0.9535959804	-0.9494942532	 0.085309
