20
gdb 84359	2.58265	1.49878	1.2018	2.9627	81.89	-0.2086	0.0021	0.2106	1136.256	0.169887	-403.204891	-403.195318	-403.194374	-403.238839	35.465	
C	-0.0129525579	 1.4726552208	 0.0189399758	-0.352739
N	 0.0105492696	 0.0287807954	-0.0331612775	-0.090718
C	 0.0401651118	-0.7595872834	-1.1974177522	-0.045887
C	 0.055412319	-2.0641181539	-0.9126126768	-0.185647
C	 0.0350709067	-2.2423967636	 0.5894569526	 0.109433
C	-1.227495184	-2.9671092516	 1.0942041757	-0.413228
C	 1.3031378314	-2.9285880519	 1.1328505816	-0.413219
C	 0.0052349882	-0.7796348147	 1.0883357039	 0.402726
O	-0.0185264976	-0.3958766343	 2.2392920481	-0.404261
H	 0.8772903416	 1.9045707895	-0.4524175455	 0.129936
H	-0.9032075803	 1.8766415229	-0.4765964434	 0.129946
H	-0.0317601668	 1.7547969545	 1.073220205	 0.168553
H	 0.0475706804	-0.2647129917	-2.1590423529	 0.125102
H	 0.0786979696	-2.8726459311	-1.6282158351	 0.103565
H	-1.2147629649	-4.0174503378	 0.7861367156	 0.111603
H	-1.2686796376	-2.9209823345	 2.1864919206	 0.136632
H	-2.1360662054	-2.5063317234	 0.6957570335	 0.119983
H	 2.2089931355	-2.440019016	 0.7623054387	 0.119994
H	 1.3094248713	-2.8819828584	 2.2258781595	 0.136619
H	 1.3319127096	-3.9786174768	 0.8248021429	 0.111608
