16
gdb 124357	5.03266	0.97331	0.81986	4.6832	74.54	-0.2161	-0.0029	0.2132	1343.6309	0.125327	-434.118701	-434.110006	-434.109062	-434.153581	30.72	
C	-0.1984995237	 1.557801007	-0.0069411468	-0.502368
C	 0.1244821107	 0.0728878611	-0.0013313456	 0.408578
O	 1.2529124416	-0.363427807	-0.071579806	-0.335696
N	-0.9903887843	-0.743052012	 0.0633946606	-0.455485
C	-0.9688426717	-2.1348882736	 0.0292453055	 0.498083
C	 0.055950853	-3.0563690159	-0.0654590455	-0.296126
C	-0.6074734994	-4.3033949192	-0.0459704483	 0.003061
N	-1.9255850437	-4.1855518054	 0.051664612	-0.23117
N	-2.127111296	-2.8452409217	 0.0970373411	-0.294447
H	 0.672326687	 2.1020667487	 0.3582783328	 0.161022
H	-0.4015031312	 1.886202819	-1.0321962729	 0.154908
H	-1.068377064	 1.805536653	 0.6086562587	 0.124764
H	-1.8916120284	-0.2960181978	 0.118023852	 0.249894
H	 1.1047056558	-2.8369847992	-0.1347255362	 0.138497
H	-0.165052812	-5.28755384	-0.1003108843	 0.111605
H	-3.0679134238	-2.498618147	 0.1749223829	 0.264881
