18
gdb 117508	2.35191	0.99146	0.73442	1.4201	73.13	-0.27	-0.0396	0.2304	1513.8516	0.144367	-439.113181	-439.102611	-439.101667	-439.150408	35.873	
C	 0.1027309463	 1.33839011	 0.5494386123	-0.486054
C	 0.0748518033	-0.0062907823	-0.1391558934	 0.38738
O	 1.0105474772	-0.4571078523	-0.7470405585	-0.27379
C	-1.2657758811	-0.8025171019	-0.0771343193	-0.270175
C	-1.1045814223	-2.2565994751	-0.5575859087	-0.203504
C	-2.4397161662	-2.9823583097	-0.743187429	-0.080827
O	-2.2654482969	-4.2869649443	-1.26484502	-0.411804
C	-1.8696302163	-0.7213055581	 1.2533535717	 0.27863
N	-2.327579866	-0.6670235115	 2.3137753691	-0.330202
H	 1.0228083895	 1.861825358	 0.289275842	 0.151795
H	-0.7684540692	 1.9399303141	 0.2687230622	 0.146846
H	 0.0508705988	 1.1999989224	 1.6345949938	 0.17514
H	-1.94190417	-0.2693090098	-0.764520372	 0.150259
H	-0.5583175726	-2.2398806093	-1.5029534769	 0.140338
H	-0.4785991785	-2.800321479	 0.1595998734	 0.113967
H	-3.0046639991	-2.995939314	 0.2009973954	 0.112311
H	-3.0540443904	-2.4485013736	-1.4780110211	 0.113188
H	-1.8497107165	-4.8269507735	-0.585138841	 0.286503
