17
gdb 4909	5.04114	1.24357	1.06444	0.9465	71.14	-0.1788	0.0647	0.2435	1118.2608	0.142528	-363.902024	-363.893722	-363.892777	-363.934853	30.766	
C	 0.0388280491	 1.5515687754	-0.1550613515	-0.360162
C	-0.0217244911	 0.0381010111	 0.1128369751	-0.295032
C	-1.4140519962	-0.5220801488	 0.074436166	 0.311462
C	-2.122251948	-1.0178616771	 1.1392361538	-0.201267
N	-3.3692643473	-1.4133269296	 0.6806355458	-0.296224
C	-3.4465090689	-1.1728161359	-0.6581661569	 0.39499
O	-4.6028461201	-1.5048341789	-1.2898193902	-0.43634
C	-2.2626669426	-0.6204756481	-1.0814905257	-0.401742
H	 1.0706716378	 1.9172954695	-0.1237780079	 0.103436
H	-0.3747098934	 1.7946456707	-1.1391000831	 0.114012
H	-0.5427999399	 2.101595362	 0.5914066867	 0.115514
H	 0.6087428251	-0.4776642394	-0.6238936591	 0.09779
H	 0.4221751486	-0.1738283269	 1.0927338843	 0.094101
H	-1.853833101	-1.1263183771	 2.1773729285	 0.109866
H	-4.107147261	-1.8251791024	 1.2238142185	 0.26275
H	-4.5119499367	-1.2761310335	-2.2194038908	 0.306375
H	-2.0220815344	-0.3239657409	-2.0915045335	 0.080472
