17
gdb 53113	2.6239	1.04727	0.83003	3.1415	79.54	-0.2291	-0.0203	0.2088	1417.6742	0.132592	-421.801895	-421.792048	-421.791104	-421.838781	34.138	
C	 0.2561347338	 1.5749968142	-0.3279175893	-0.501051
C	 0.15953277	 0.133943799	-0.1539124323	 0.118889
C	 0.0777953865	-1.0574623068	-0.0021623349	 0.077908
C	-0.0565894217	-2.4820287186	 0.168878571	-0.326945
C	 0.2593349764	-3.1693874163	 1.5454355354	 0.106289
O	 0.0978454295	-2.2287822265	 2.578424423	-0.416486
C	-0.9773019019	-4.1029071567	 1.364289124	-0.381588
C	-1.4628923618	-3.148983386	 0.2594188453	 0.402589
O	-2.5120587022	-2.9415099275	-0.2648074175	-0.281749
H	 1.0755029661	 1.8441503452	-1.0037023097	 0.145876
H	-0.6692782769	 1.9844065855	-0.7479809156	 0.152145
H	 0.4353292974	 2.0765939358	 0.629469689	 0.150946
H	 0.490315998	-3.027804701	-0.6135961778	 0.127751
H	 1.2334839859	-3.6692075153	 1.5932792651	 0.076542
H	 0.1437436815	-2.6958478425	 3.4188985621	 0.288715
H	-0.7327282086	-5.0932982973	 0.9661346736	 0.130087
H	-1.6363111518	-4.2120560653	 2.2285296886	 0.130082
