17
gdb 111717	2.33978	1.4801	1.13492	2.8752	74.88	-0.2332	0.0013	0.2344	1119.4622	0.1361	-417.953787	-417.945263	-417.944319	-417.987218	31.083	
C	-0.4344602602	 0.9449338502	-0.1383918862	-0.239228
O	 0.5996488941	-0.0058719339	 0.0761989528	-0.229412
C	 0.9952898763	-0.6518209583	-1.0723682139	 0.091626
C	 1.4559637439	-2.0675587705	-1.000515405	-0.210335
C	 0.5863876255	-2.8546663555	-0.0126049344	-0.171398
N	-0.6786796485	-2.3781102308	-0.673917525	-0.362415
C	 0.1282407592	-1.7190536627	-1.7240323913	 0.184129
C	-0.2236938779	-1.7315636831	-3.102511261	 0.187021
N	-0.5186740317	-1.7445155216	-4.2228020299	-0.346773
H	-0.1218943787	 1.7215935294	-0.8506592119	 0.112429
H	-1.3431812659	 0.4567518926	-0.5095720054	 0.135841
H	-0.639702335	 1.4086908229	 0.8281789452	 0.133838
H	 1.5286965874	-0.0367181478	-1.8006756437	 0.108487
H	 2.4045889183	-2.3929926824	-1.4076113213	 0.120532
H	 0.732457642	-3.933163305	-0.1106378659	 0.116672
H	 0.6617314465	-2.5609589136	 1.0368293871	 0.130824
H	-1.1884284852	-3.1630237997	-1.0664717503	 0.238161
