19
gdb 99680	2.68906	1.1622	0.95521	2.4077	76.5	-0.2487	0.0412	0.2898	1283.7998	0.157587	-422.964636	-422.95506	-422.954116	-422.999714	34.55	
O	 0.1463189169	 1.362196664	-0.162628291	-0.423733
C	 0.0415043989	-0.0344172261	 0.0072252582	-0.064129
C	-1.4289005085	-0.5206272624	 0.0485353132	-0.200832
C	-2.117550215	-0.1169638814	-1.1756810763	 0.32378
C	-2.6459431622	 0.2497954485	-2.1926885721	-0.48329
C	-1.4862519948	-2.0351983845	 0.2928388501	 0.148103
C	-2.8296962313	-2.7731559601	 0.1051858807	-0.310796
C	-2.0769986015	-3.5629846173	-0.984645515	-0.054845
O	-0.8735708916	-2.7911959949	-0.7732831557	-0.289194
H	-0.2924757903	 1.5798981701	-0.9935887112	 0.285712
H	 0.5700855539	-0.5901883175	-0.7790877712	 0.118519
H	 0.5171900909	-0.2654673381	 0.965837083	 0.108367
H	-1.9160757388	-0.029022963	 0.9027562874	 0.112404
H	-3.1293846416	 0.5623750629	-3.0853635284	 0.202252
H	-0.9895637073	-2.2419772718	 1.2518330249	 0.078222
H	-3.1707416108	-3.3514881277	 0.9645656858	 0.111204
H	-3.6425204151	-2.1457169819	-0.2624737268	 0.123372
H	-1.9178129865	-4.6270867121	-0.7728564954	 0.102943
H	-2.4546121753	-3.4508777667	-2.0067133401	 0.111939
