17
gdb 4193	4.40275	1.57904	1.29548	1.1002	71.87	-0.2277	0.017	0.2446	950.5206	0.14356	-363.827826	-363.820723	-363.819779	-363.858995	27.913	
O	-0.1064389115	 1.3177236245	-0.0363515152	-0.398188
N	 0.0208348228	-0.0877300779	-0.0471880473	-0.255264
C	-1.1175323788	-0.6536073031	 0.0410816262	 0.439447
C	-2.4826436359	-0.0095428469	 0.1892933676	-0.323378
C	-3.3579919442	-1.0987035931	 0.8603917313	-0.226063
C	-2.6586296936	-2.425990706	 0.5782370632	-0.031482
C	-2.291508641	-2.7257943632	-0.8440741791	-0.291575
C	-1.2484808136	-2.1285248821	 0.0905054147	-0.107199
H	 0.8135883708	 1.6004108422	-0.0581032223	 0.303867
H	-2.416721969	 0.9123832822	 0.7698451857	 0.133918
H	-2.8680232268	 0.2759064251	-0.7966634977	 0.124864
H	-3.3899809503	-0.9343745289	 1.9428321623	 0.108766
H	-4.3921273805	-1.0816718458	 0.5012823544	 0.102209
H	-2.8410201612	-3.2576285272	 1.2493166648	 0.088551
H	-2.1471764452	-3.7652471893	-1.1166385275	 0.117526
H	-2.692569551	-2.1088863399	-1.6419032774	 0.116151
H	-0.385527021	-2.7220444907	 0.3627261764	 0.097849
