18
gdb 39203	2.87902	1.90722	1.34866	1.6894	74.86	-0.2364	0.0219	0.2583	958.2254	0.150852	-401.959907	-401.953139	-401.952195	-401.991028	27.511	
C	-0.0037301941	 1.3921005001	-0.1942240546	-0.364607
C	 1.4136806569	 0.8637027872	 0.0362688781	-0.117067
C	 1.9390345144	 0.7926495211	 1.4742233381	-0.239213
C	 1.3857476532	-0.5385255728	 2.0543417518	-0.207028
C	 0.0783723416	-0.8261922437	 1.2745348331	-0.066616
N	-0.0827499945	-2.2247603225	 0.8330582515	-0.270329
C	-0.1050262305	-2.1881409017	-0.4348821194	 0.090472
O	 0.0047184247	-0.9972118135	-1.0875030856	-0.252021
C	 0.2357304743	-0.0619159166	-0.0438013812	 0.4358
H	-0.5158410084	 1.9255776403	 0.603124576	 0.113874
H	-0.2179904057	 1.7576184735	-1.1933408114	 0.125855
H	 2.1095447109	 0.9592476352	-0.789070213	 0.099513
H	 3.0313889066	 0.8170473342	 1.5040118776	 0.108652
H	 1.5888738338	 1.6509451562	 2.0598117579	 0.103687
H	 2.0855239863	-1.353114759	 1.8430075476	 0.113428
H	 1.238042871	-0.5052778706	 3.1369267142	 0.101928
H	-0.8047665121	-0.5337674729	 1.8556562758	 0.08536
H	-0.2143135584	-3.0443784745	-1.0910174665	 0.138312
