17
gdb 35861	2.22261	1.70892	1.19257	2.3746	72.73	-0.2591	0.0302	0.2893	1065.9998	0.134998	-421.766628	-421.758417	-421.757473	-421.799954	30.953	
C	-0.0632897863	-1.2327301891	 0.2836649243	-0.481385
C	-0.0077115216	-0.0416614136	 0.1302454557	 0.353673
C	 0.0673330164	 1.4137346564	-0.04679706	-0.184369
O	-0.6170803078	 2.1128066064	 0.9867941965	-0.23748
C	 0.2979765152	 2.2390073576	 2.075587246	-0.086743
C	 1.6649326771	 2.5313004311	 1.4306149728	-0.324341
C	 1.514404556	 1.9402104113	 0.0294391421	 0.430713
C	 2.5973126084	 1.4448511145	-0.8179768448	-0.243431
O	 1.9752164477	 2.711113561	-1.07668721	-0.270878
H	-0.1245349783	-2.2852074122	 0.4136762819	 0.20235
H	-0.3860596417	 1.7022926869	-0.9996927065	 0.1281
H	-0.0681519123	 3.0425172496	 2.717451299	 0.118506
H	 0.3269295883	 1.3075681201	 2.6590493866	 0.106438
H	 1.8417104777	 3.6056767453	 1.3342259245	 0.132626
H	 2.4961042934	 2.0930370866	 1.9877580309	 0.1155
H	 3.6249019954	 1.492534637	-0.4598792497	 0.116851
H	 2.3970862425	 0.6646474711	-1.5511222094	 0.123869
