24
gdb 10226	3.1524	1.05922	0.84411	0.9815	82.5	-0.2423	0.0849	0.3272	1475.018	0.220813	-351.409304	-351.398339	-351.397395	-351.445852	38.346	
C	 1.0893113526	 1.0021409066	 0.6827368682	-0.381542
C	 0.6427638679	-0.4597587298	 0.5939805576	-0.173436
C	-0.8789687314	-0.6156169171	 0.5170980871	-0.161035
C	-1.3572945646	-2.0675553735	 0.40461966	 0.118833
C	-2.887394824	-2.1645265941	 0.3880290785	-0.167948
C	-3.4137469366	-3.5993242125	 0.3161774438	-0.391098
O	-0.8417942628	-2.6399198496	-0.8020949342	-0.25229
C	 0.0139947321	-3.7458231667	-0.6288099404	-0.234587
H	 2.179692085	 1.0849341952	 0.7317052755	 0.109406
H	 0.7514370129	 1.5716681215	-0.1902544474	 0.114681
H	 0.6784264727	 1.4912088075	 1.5733638882	 0.110849
H	 1.0896588948	-0.9278208839	-0.2901131516	 0.109469
H	 1.0228098749	-1.0111598961	 1.4648709236	 0.086686
H	-1.3426973166	-0.1619702701	 1.4033331422	 0.086707
H	-1.2591622756	-0.0626485732	-0.3522102409	 0.098695
H	-0.9738142726	-2.6381411938	 1.2658117615	 0.060451
H	-3.2770958656	-1.6653909332	 1.2840304098	 0.089877
H	-3.2542383053	-1.5933431176	-0.4740155498	 0.101751
H	-4.5075577915	-3.6171572441	 0.287592097	 0.109664
H	-3.0457871397	-4.0998365202	-0.5837431137	 0.128526
H	-3.0958992603	-4.1863181695	 1.1856732688	 0.106922
H	 0.3230653289	-4.0723397082	-1.6260487479	 0.122282
H	 0.9148600265	-3.489115247	-0.0515586355	 0.103347
H	-0.4882464917	-4.5863170804	-0.1269011307	 0.103792
