18
gdb 8595	4.23655	1.9621	1.78745	1.7769	72.95	-0.2264	0.0715	0.2979	818.9651	0.15357	-347.677478	-347.670724	-347.66978	-347.707829	27.699	
C	-0.4163105151	 1.5595388601	-0.0507989112	-0.402382
C	-0.013037029	 0.0926451023	 0.0073287948	 0.008385
C	 1.1751001229	-0.3900031109	-0.9471788165	-0.347471
C	 2.0121946145	-0.5022921123	 0.3289940051	 0.381707
C	 2.9179645381	-1.0524699559	 1.4598050557	-0.310798
C	 1.9993339921	 0.1271886547	 1.995709026	 0.026056
O	 2.353669267	 0.8852542282	 0.7988442383	-0.332875
C	 0.787784295	-0.4927946609	 1.2461563444	-0.058634
H	 0.4492085829	 2.2109701915	 0.0702150898	 0.143482
H	-0.8992172557	 1.7884628439	-1.0080249797	 0.106101
H	-1.1350827913	 1.789109371	 0.7437508628	 0.110501
H	-0.9010857399	-0.5280314035	-0.1448419559	 0.076328
H	 0.9569176075	-1.3532400208	-1.4147572257	 0.109109
H	 1.5470015775	 0.3128326261	-1.6967832994	 0.11644
H	 2.7174438432	-2.0693876241	 1.8072137611	 0.100715
H	 3.9819830529	-0.8123961723	 1.4187015124	 0.110882
H	 2.0765529245	 0.6388053088	 2.9595270899	 0.090206
H	 0.403249553	-1.4426617061	 1.6227694382	 0.072247
