14
gdb 125585	3.22775	1.47949	1.02085	2.032	70.35	-0.2483	-0.0747	0.1735	1090.2313	0.10114	-470.042864	-470.034915	-470.033971	-470.075808	28.947	
C	-0.2092305874	 1.4828759435	-0.0276439291	-0.46203
C	-0.0255966725	-0.0022365144	-0.0079490894	 0.17327
N	-0.0250523118	-0.6705677094	-1.1123869293	-0.192136
N	 0.1425290622	-1.998080457	-1.0531514776	-0.276053
C	 0.3212124942	-2.7608837014	 0.0862701004	 0.485613
N	 0.4706646899	-4.0112503605	 0.0192088746	-0.550819
O	 0.3190763389	-2.04138118	 1.2544965251	-0.249441
C	 0.1519850467	-0.6632817978	 1.2986090867	 0.392388
O	 0.1625834139	-0.1169846277	 2.362837275	-0.300526
H	 0.6494484497	 1.9858046506	 0.4287680271	 0.150285
H	-0.3267030052	 1.8252394308	-1.0565804897	 0.143653
H	-1.0888787531	 1.7724509475	 0.5562474157	 0.150295
H	 0.1374972792	-2.4868497843	-1.9342022085	 0.292601
H	 0.5889921053	-4.4163186599	 0.944370679	 0.2429
