13
gdb 50811	3.66068	0.99141	0.78013	4.414	63.81	-0.2537	-0.1376	0.1161	1328.8425	0.087309	-489.911616	-489.902818	-489.901874	-489.946455	29.533	
N	 0.2414929436	 1.3047600818	 0.5336233081	-0.464301
C	 0.0850421822	 0.1194845357	 0.0986023198	 0.272422
N	-1.1479639717	-0.5034677897	-0.0594037606	-0.334157
C	-2.4170688051	-0.0086975971	 0.2043503858	 0.16671
O	-2.69024713	 1.0795775322	 0.6296142361	-0.25414
C	 1.203355871	-0.815275614	-0.3205582261	 0.257596
O	 0.9851655435	-1.9365151682	-0.7272467263	-0.290634
C	 2.6809373162	-0.3927304804	-0.2533089495	 0.105061
O	 3.1011508683	 0.6699773285	 0.1184663484	-0.213092
H	 1.2334980517	 1.5392178239	 0.5599668991	 0.262618
H	-1.0871563786	-1.4479422867	-0.4168382496	 0.270554
H	-3.1758684263	-0.7799633109	-0.0386501158	 0.087801
H	 3.3343610852	-1.2182434149	-0.6020935594	 0.133562
