20
gdb 84293	2.3568	1.66866	1.25	5.0253	83.34	-0.2017	-0.0188	0.1829	1089.905	0.169665	-403.193593	-403.183922	-403.182978	-403.228856	35.393	
C	 0.008529431	 1.4330682473	-0.0044770031	-0.342065
N	 0.0146252585	-0.0075769104	-0.0076717586	-0.022696
C	-0.0125219248	-0.7988734317	-1.1029289318	 0.013081
C	-0.0006650339	-2.1383414309	-0.8324744906	-0.33052
C	 0.0386480191	-2.2930457261	 0.603109477	 0.386984
O	 0.0610256451	-3.2872718326	 1.3059242617	-0.390789
C	 0.0499071497	-0.8462741123	 1.2009362482	 0.114241
C	 1.3412277951	-0.6429246679	 2.0009545332	-0.416086
C	-1.1977236043	-0.6513536149	 2.0694021581	-0.416135
H	 0.9071473919	 1.8423644368	 0.4741537083	 0.134019
H	-0.0192903013	 1.7930225105	-1.0361634884	 0.136151
H	-0.8678718786	 1.8350054583	 0.5194962839	 0.133977
H	-0.0406121125	-0.3289001708	-2.080273392	 0.129833
H	-0.0174328415	-2.9374500384	-1.5559511479	 0.108391
H	 2.2190944662	-0.7185616156	 1.352501082	 0.123956
H	 1.3588313981	 0.329394522	 2.504439677	 0.108367
H	 1.4063574483	-1.430251566	 2.7565939543	 0.148473
H	-1.216940311	-1.439152064	 2.827113441	 0.14849
H	-1.194503084	 0.3207838007	 2.5735307945	 0.108386
H	-2.1087590012	-0.7326566039	 1.4691692232	 0.123943
