17
gdb 28343	3.15426	1.39517	0.97383	4.2285	85.05	-0.1845	-0.0209	0.1637	1182.6877	0.136762	-418.057413	-418.049011	-418.048067	-418.090055	32.423	
C	-0.0061526164	 1.5306414164	-0.0342515392	-0.470987
C	-0.0444911551	 0.0307332379	-0.0145999329	 0.187872
C	-1.1818361733	-0.7050031008	-0.1124433864	-0.137543
C	-1.178248226	-2.1324126976	-0.0904769316	-0.275827
C	 0.0191347697	-2.7573755631	 0.0413379877	 0.433408
N	 0.2414212296	-4.1100012643	 0.1581305091	-0.564698
O	 1.1730852264	-2.0677404419	 0.1321912143	-0.265643
C	 1.2237898552	-0.6601003935	 0.1154893112	 0.322739
N	 2.3537944938	-0.0838194555	 0.2094438846	-0.540504
H	 0.6151457081	 1.8980102588	-0.8582932352	 0.136899
H	-1.0130467173	 1.9438640905	-0.1392127039	 0.106675
H	 0.4440789443	 1.9250277909	 0.883229218	 0.137555
H	-2.1346874278	-0.193322722	-0.2135973894	 0.099339
H	-2.0911148148	-2.7070950104	-0.1640418291	 0.090397
H	-0.4927811517	-4.7015115213	-0.198890389	 0.26358
H	 1.1692948048	-4.4063030902	-0.107530715	 0.263104
H	 3.1057696306	-0.7670244239	 0.2938612467	 0.213632
