17
gdb 41626	3.50917	1.5905	1.35862	1.4908	73.12	-0.2468	-0.0053	0.2415	956.5787	0.138208	-421.762437	-421.7558	-421.754856	-421.793484	26.485	
C	-0.0131680361	 1.4931020891	-0.1359831257	-0.088724
O	 1.379664821	 1.6048952047	 0.2434283342	-0.288457
C	 1.4286333753	 0.2023459227	 0.6047585943	 0.090081
C	 1.2217327887	 0.0566533236	 2.1062818515	-0.220328
C	 0.014617497	-0.4488036275	 2.3349248902	 0.173647
C	-1.270637592	-0.2198103272	 3.0898218788	-0.149224
O	-1.9360448996	-0.0640326582	 1.7934601142	-0.307656
C	-0.7992851679	-0.706713913	 1.1090507674	 0.09874
C	 0.0057614965	-0.0442246263	-0.0115561724	-0.124807
H	-0.6825826155	 1.9868576458	 0.5771042336	 0.116683
H	-0.1868215211	 1.8919969841	-1.1399468793	 0.108025
H	 2.3114482152	-0.2834191092	 0.176759839	 0.082762
H	 1.8947133249	 0.5213777419	 2.8168795576	 0.111528
H	-1.6764054324	-1.0821333577	 3.6342909589	 0.111634
H	-1.3370117555	 0.6786174433	 3.7108818349	 0.126034
H	-1.0695028542	-1.7449921173	 0.8781237624	 0.081813
H	-0.0254426343	-0.5710812188	-0.9650365295	 0.078249
