18
gdb 6738	5.66659	0.87746	0.77067	1.8634	75.74	-0.244	-0.0085	0.2355	1483.2045	0.152204	-381.167185	-381.157667	-381.156723	-381.202611	32.697	
C	 0.0840817067	 1.3106798307	 0.2195741213	-0.396165
C	 0.090283116	-0.1936970438	 0.5033227537	-0.109077
N	 0.653280656	-1.0921994903	-0.4932693686	-0.262008
C	 1.1254093246	-0.6301799804	-1.5720333819	 0.117327
N	 1.6623640754	-1.4937863707	-2.520369279	-0.338792
C	 2.1992355293	-1.0767244997	-3.7251985559	 0.410345
C	 2.7217365457	-2.207024813	-4.5935894967	-0.499641
O	 2.2416323911	 0.0924723086	-4.0466113492	-0.34407
H	 1.0969149395	 1.7053353475	 0.0865197801	 0.124965
H	-0.4959007709	 1.554968704	-0.6766543574	 0.124962
H	-0.36993884	 1.8395887068	 1.062853018	 0.114616
H	 0.6278944646	-0.3849842448	 1.4420637353	 0.112145
H	-0.9375293714	-0.5330801465	 0.6912012182	 0.112148
H	 1.1767130691	 0.4122979379	-1.8869421362	 0.135037
H	 1.6427726374	-2.4752379267	-2.2836960875	 0.255751
H	 3.5042395935	-2.7688407355	-4.0727096613	 0.143237
H	 1.9186017841	-2.908646376	-4.8427225058	 0.143771
H	 3.1294458495	-1.7841754981	-5.5108195671	 0.155448
