21
gdb 109663	3.06687	0.96979	0.92616	3.7606	75.36	-0.2443	0.0558	0.3001	1368.5839	0.180622	-461.331476	-461.321072	-461.320128	-461.36652	38.414	
C	 0.000631732	 1.6259784679	-0.0923187029	-0.474928
C	-0.0611328096	 0.1198523972	 0.0653040928	 0.295845
C	-1.2994750277	-0.5234870382	-0.5204771377	-0.14102
O	-1.333744747	-0.2548967289	-1.9155034683	-0.417345
C	 1.2145948583	-0.683531661	-0.0132834369	 0.080376
O	 2.4267629104	-0.0114022232	-0.1643973568	-0.431129
C	 0.4930934431	-0.567660427	 1.3146666099	-0.174925
C	 1.1832732212	 0.1918625886	 2.4277644366	-0.116498
O	 2.5171311145	-0.2916560617	 2.6670834334	-0.416625
H	 1.01463372	 1.9992896696	 0.0578456742	 0.135273
H	-0.3028434791	 1.8873348938	-1.1093255234	 0.138794
H	-0.6754930885	 2.1349358484	 0.6048600345	 0.102498
H	-1.2792655966	-1.6089815386	-0.3302815972	 0.077607
H	-2.1947330022	-0.1207158667	-0.0181670704	 0.084402
H	-2.1898951386	-0.5320238206	-2.2541713559	 0.287009
H	 1.1656296771	-1.6391009894	-0.5358103966	 0.08405
H	 2.9147222478	-0.1326245683	 0.6633373128	 0.294351
H	-0.0468581755	-1.4530096254	 1.6451131497	 0.075694
H	 1.311862923	 1.245766902	 2.1778889603	 0.128101
H	 0.5923559131	 0.1446848951	 3.3523927546	 0.100859
H	 2.4518512845	-1.2252772636	 2.8946571273	 0.287612
