13
gdb 13059	4.38663	1.30255	1.11739	3.321	56.33	-0.2738	-0.0106	0.2633	1009.0202	0.095756	-435.777782	-435.770439	-435.769495	-435.810577	25.208	
O	-0.0492553931	 0.0926318708	-0.8274315845	-0.305908
C	-0.0808421994	 1.1236599883	-0.196285601	 0.160437
N	 1.0221913084	 1.7634230077	 0.302131558	-0.29234
C	 2.3332071421	 1.200589805	 0.1955280007	-0.144392
C	 3.4669931923	 1.9389730465	-0.5560974455	-0.095381
O	 4.2941648817	 1.8929929337	 0.6506517802	-0.235515
C	 3.2809392391	 1.3538105437	 1.4021516679	 0.433319
O	 3.2553802875	 1.1578283509	 2.5721026824	-0.311617
H	-1.0137123991	 1.6682906584	 0.0410613801	 0.093945
H	 0.884135144	 2.5873968892	 0.8668374795	 0.262966
H	 2.2204219769	 0.1617251201	-0.1216750358	 0.165681
H	 3.9430465197	 1.4042469254	-1.3791111644	 0.13988
H	 3.2436383298	 2.9709671002	-0.8350376776	 0.128924
