20
gdb 60583	3.65217	0.94245	0.85581	1.9671	75.43	-0.2303	0.0545	0.2848	1394.0217	0.170681	-440.227387	-440.218221	-440.217277	-440.261847	34.731	
O	 0.0775453157	 1.7621936908	 0.399702848	-0.439758
C	 0.0898878419	 0.3817982124	-0.0110036229	 0.05637
C	 0.9961387819	 0.1847953329	-1.2053699665	 0.000994
C	 0.5445541765	-0.630727664	-2.3609942868	-0.240518
N	 0.674292037	 0.8286971954	-2.4860829361	-0.32087
C	 0.4458493061	-0.5594425661	 1.1306408801	-0.0671
C	 1.426368711	-0.143893614	 2.2207920952	-0.347283
C	-0.0416320194	-0.3016004444	 2.5339832532	 0.133917
O	-0.8529258038	 0.7850817316	 2.8471700356	-0.435236
H	 0.9872977126	 2.0806057512	 0.4073206256	 0.293437
H	-0.9472362195	 0.1921433052	-0.3188604425	 0.092059
H	 2.0594025615	 0.1949301109	-0.9650981887	 0.09444
H	 1.2645299136	-1.2078052815	-2.9337575544	 0.123774
H	-0.4504295634	-1.0670383948	-2.3148812031	 0.115538
H	-0.240459579	 1.2709755968	-2.4228323104	 0.237977
H	 0.4887707932	-1.5982335921	 0.8125713295	 0.092603
H	 2.1402379144	-0.8737745971	 2.5870108082	 0.11355
H	 1.8022804963	 0.8743843461	 2.2002346356	 0.099451
H	-0.3330977624	-1.1652235432	 3.1238202667	 0.103538
H	-0.6881628345	 1.4651827938	 2.1772938239	 0.293118
