17
gdb 9745	3.52422	1.68639	1.55296	0.5348	63.56	-0.2512	0.0183	0.2695	889.7035	0.142359	-401.016134	-401.008238	-401.007294	-401.04849	29.216	
C	-0.1724648182	 1.6592970703	-0.1070443319	-0.434496
C	-0.0075160783	 0.1468650247	-0.0823245883	 0.333577
C	-1.3493955358	-0.5929223503	-0.0603550267	-0.090547
O	-2.1406823954	-0.2466981419	 1.0563096403	-0.419964
C	 0.9615957468	-0.4168794362	-1.1585448812	-0.233749
N	 2.0365538862	-1.0948786068	-0.4148906828	-0.259904
C	 1.770674012	-0.9174631451	 0.8099927653	 0.112963
O	 0.6694195297	-0.2185034197	 1.1748439274	-0.269052
H	 0.79625734	 2.1529310009	 0.0082138606	 0.124925
H	-0.605888963	 1.969956179	-1.0635108878	 0.122334
H	-0.8401842127	 1.9858444007	 0.692961299	 0.139282
H	-1.9257156697	-0.3277458667	-0.9536414931	 0.114403
H	-1.153804263	-1.676485651	-0.0980802377	 0.094856
H	-1.6048081568	-0.4321834161	 1.8364062761	 0.291387
H	 0.4652949532	-1.1301727508	-1.8270426035	 0.116663
H	 1.3872456688	 0.3741622235	-1.7854618152	 0.11726
H	 2.3673569761	-1.2799678443	 1.6403071494	 0.140062
