18
gdb 75447	3.11303	1.16914	0.88377	0.9095	74.18	-0.2495	-0.0383	0.2112	1289.4802	0.146688	-439.118045	-439.109131	-439.108187	-439.152663	31.824	
C	 0.295430072	 1.5322492024	-0.0321925293	-0.451367
C	 0.151289779	 0.0419554769	-0.1135014649	 0.397268
N	-0.0423004604	-0.5636171042	-1.2081606058	-0.299316
C	-0.2250615677	-2.0106648435	-1.2006912581	-0.172468
C	-0.6305744552	-2.5623233259	 0.1680453903	-0.23854
C	 0.2868304863	-1.936558307	 1.2200346433	 0.045022
O	 0.2622584832	-0.5110051037	 1.137905494	-0.280056
C	-0.1323122133	-2.3073323295	 2.6337077518	 0.132638
O	-0.0696067853	-3.427979344	 3.0639078209	-0.246324
H	 1.2745115609	 1.7983721498	 0.3788856549	 0.138562
H	 0.182377789	 1.9635482564	-1.0256911316	 0.147375
H	-0.4610484746	 1.9485918555	 0.6408143163	 0.138613
H	-0.9844187189	-2.2582549869	-1.9502977232	 0.116589
H	 0.7057567822	-2.4833609183	-1.5431086294	 0.115158
H	-1.669205459	-2.2898521921	 0.3890131917	 0.115649
H	-0.5510097115	-3.6510545627	 0.2209831793	 0.127827
H	 1.3171784886	-2.2867794604	 1.0655662248	 0.116226
H	-0.5213178453	-1.4528282827	 3.2300932049	 0.097142
