18
gdb 123419	4.6923	0.96865	0.90844	4.488	77.44	-0.2542	0.0043	0.2585	1316.6528	0.149801	-398.114125	-398.106245	-398.105301	-398.147925	29.103	
C	-0.124925321	 1.6413963391	-0.0319350024	-0.195744
C	-0.2718727111	 0.1657462849	-0.328799066	 0.016653
C	-0.0039863588	-0.8387424769	 0.7608961846	-0.247423
C	-1.4161377656	-0.5969658606	 0.292516222	-0.270529
N	 1.2637501114	 2.0866530847	-0.0170733739	 0.091527
C	 2.0810887065	 2.3909591703	-1.052411125	-0.102301
C	 3.2880653326	 2.6740226224	-0.4592476932	-0.066042
N	 3.1541686418	 2.5303039756	 0.8870433404	-0.189807
N	 1.9295622097	 2.1721105466	 1.1529427243	-0.149499
H	-0.6676465115	 2.2483037982	-0.7639391765	 0.124969
H	-0.521653453	 1.8723095902	 0.9595818462	 0.141002
H	 0.0123739935	-0.1208401341	-1.3374838741	 0.090026
H	 0.4777576	-1.7701840472	 0.486961391	 0.119092
H	 0.2884567944	-0.4545055649	 1.7319194273	 0.138401
H	-2.0863465885	-0.0570722072	 0.953591854	 0.11748
H	-1.9039750512	-1.3593119467	-0.3040408133	 0.118609
H	 1.7459743868	 2.3864551051	-2.0760452631	 0.140092
H	 4.2205685339	 2.9732479505	-0.9095287924	 0.123492
