17
gdb 125166	3.29639	1.57729	1.08111	2.7175	82.29	-0.2087	-0.0016	0.2071	1087.2853	0.138627	-380.907634	-380.899984	-380.89904	-380.940812	29.013	
C	-0.0168398445	 1.5230548432	 0.1188576424	-0.504825
C	 0.0076017975	 0.0406899099	-0.0671162231	 0.173972
C	-0.0002373501	-0.7707702818	-1.1755943771	 0.165947
C	-0.0355490061	-0.8204956837	-2.675382765	-0.429668
C	-0.0078661846	-2.3267615068	-2.925146066	-0.081795
C	 0.0362918765	-3.0345227976	-1.779886389	-0.174983
C	 0.0423503393	-2.0916423864	-0.6679677634	 0.329372
N	 0.0754668745	-2.1437251091	 0.6561879821	-0.347449
N	 0.0526859844	-0.8270531478	 0.996891745	-0.256634
H	 0.9032743299	 1.8918119615	 0.5875116299	 0.136856
H	-0.1184063383	 2.01992904	-0.8481408413	 0.140247
H	-0.8569372058	 1.8412413287	 0.7470050515	 0.134928
H	-0.9348605787	-0.3635079442	-3.1100866292	 0.123632
H	 0.8203337345	-0.3244030117	-3.1527084159	 0.123701
H	-0.0230506348	-2.7443837514	-3.9241892167	 0.097447
H	 0.0628137186	-4.1123489077	-1.6918298101	 0.10547
H	 0.0683945277	-0.583224425	 1.972863996	 0.263782
