20
gdb 83520	2.85048	1.74975	1.57427	1.8827	76.95	-0.2335	0.0937	0.3272	956.8295	0.174201	-403.118997	-403.11195	-403.111006	-403.149957	29.544	
C	-0.0031582905	 1.6157626649	-0.0142080968	-0.437785
C	 0.0151460783	 0.0886038225	 0.0149231238	 0.000233
C	 0.9866084508	-0.5814039921	-0.9739995332	 0.078612
O	 2.271109669	-0.112441676	-0.5112631207	-0.283806
C	 2.185456797	-0.1228376518	 0.9334511036	-0.069712
C	 0.7421716386	-0.588115972	 1.2042545273	-0.029984
N	 0.8163265265	-2.048963681	 0.9033625724	-0.103129
C	-0.2603757237	-2.6251968106	 0.0848314437	-0.274338
C	 0.9371882788	-2.0573969767	-0.5865248204	-0.024687
H	 1.0012916527	 2.0339823101	-0.1032319948	 0.140396
H	-0.5875265132	 1.9739359324	-0.868132415	 0.116205
H	-0.4679996006	 2.0190688657	 0.8919809133	 0.114196
H	-1.0087395805	-0.2696854652	-0.0926422762	 0.074658
H	 0.8964626072	-0.342354319	-2.0336974381	 0.075889
H	 2.9104598814	-0.829930359	 1.3473716342	 0.114264
H	 2.3937650559	 0.8815682456	 1.3183037301	 0.097175
H	 0.3662089477	-0.3925831249	 2.2092971041	 0.073045
H	-0.3186274774	-3.7056878688	 0.1809950249	 0.119705
H	-1.2286091833	-2.1436653072	 0.0045761137	 0.117389
H	 1.6951145351	-2.7074193869	-1.0138091159	 0.101673
