17
gdb 33337	5.11175	0.7541	0.71918	1.476	95.53	-0.2378	-0.0115	0.2263	1574.5124	0.135266	-347.470352	-347.462004	-347.46106	-347.503744	31.854	
C	 0.0129260175	-3.8294752867	-0.1006186177	-0.567426
C	 0.0174803582	-2.6220848854	-0.0631471174	 0.30213
C	 0.0218402152	-1.2624915654	-0.0215083753	-0.316811
C	 0.0263694841	-0.0512818555	 0.0159584627	 0.474787
C	 0.0369333104	 1.3955263056	 0.0755596512	-0.230942
C	-0.2105631778	 2.0988094772	 1.4700718132	-0.244872
C	 1.1363018845	 2.8131744915	 1.3271265232	-0.037183
C	 2.243307606	 1.8062397852	 1.1920614044	-0.275798
C	 1.4000387823	 2.1200989556	-0.0091162328	-0.044016
H	 0.009134737	-4.8904394336	-0.1332213689	 0.188412
H	-0.6609120647	 1.7973574064	-0.6654829867	 0.110837
H	-1.074280248	 2.7647777169	 1.4294031419	 0.111561
H	-0.313750206	 1.4309592997	 2.3295304957	 0.110189
H	 1.3262758569	 3.8427614814	 1.6031919251	 0.090397
H	 3.2470316697	 2.2174972871	 1.1643705177	 0.114953
H	 2.1708708599	 0.8349344576	 1.6755081543	 0.120367
H	 1.8195433949	 2.5140841824	-0.9262989805	 0.093415
