16
gdb 11979	2.7566	2.29151	1.7911	1.9213	65.76	-0.2466	0.0001	0.2467	810.8014	0.129599	-379.875932	-379.868191	-379.867247	-379.907483	29.349	
C	-0.0624481788	 1.6311632205	-0.0526266789	-0.445149
C	 0.0411426572	 0.1149685486	-0.0167471467	 0.344844
O	-1.2285046905	-0.4808912609	 0.2033312047	-0.47119
C	 0.7392230871	-0.6343895463	-1.1629540015	-0.056917
C	 2.1778232618	-0.3530874856	-1.2048110561	-0.257558
N	 1.7038877512	-1.3429123656	-0.1909941772	-0.176367
C	 1.0982192188	-0.5584521883	 0.8684607391	 0.309824
N	 1.2423072486	-0.5720654605	 2.115806176	-0.541628
H	 0.886554674	 2.1054574134	-0.3172249381	 0.116788
H	-0.8232718209	 1.9314739504	-0.778846272	 0.129586
H	-0.3581472157	 2.0026417026	 0.9338539061	 0.132412
H	-1.3995529429	-0.4445695043	 1.1516641641	 0.294717
H	 0.2088788851	-1.2050034402	-1.9149636748	 0.121377
H	 2.7653779125	-0.8234312068	-1.9865639633	 0.138616
H	 2.5694579027	 0.5993495778	-0.8581826647	 0.130028
H	 1.96615954	-1.2413549349	 2.3919074032	 0.230617
