15
gdb 220	4.48834	2.74542	2.74525	3.9525	56.9	-0.3156	0.0438	0.3594	602.0353	0.129886	-250.585843	-250.578524	-250.57758	-250.616127	26.404	
C	-0.0121991036	 1.5431716228	-0.001244227	-0.395169
C	-0.0022354504	-0.0012182746	 0.0094547788	 0.093409
C	 0.7595349857	-0.5229994733	 1.2475926312	-0.39516
C	-1.4474108318	-0.5460417031	 0.0008634562	-0.395164
C	 0.6875638051	-0.4761479831	-1.2029397099	 0.268423
N	 1.2288478018	-0.8486627353	-2.1541181017	-0.342056
H	 1.0047579123	 1.9442407332	-0.0089821031	 0.133616
H	-0.5385358221	 1.9274017382	-0.8790008467	 0.13357
H	-0.5214813682	 1.9104123818	 0.8952374276	 0.121388
H	 0.258362853	-0.1757758864	 2.1564850489	 0.121388
H	 0.7848589084	-1.6157838432	 1.2633951482	 0.133569
H	 1.7893287805	-0.156305452	 1.2599364784	 0.133616
H	-1.9958336759	-0.1947552836	-0.8771496984	 0.133601
H	-1.4561742392	-1.6391990553	-0.0046847366	 0.133595
H	-1.9720783756	-0.2006672461	 0.897124744	 0.121374
