22
gdb 102168	2.16692	1.04761	0.86954	3.1755	82.52	-0.2685	0.0298	0.2984	1449.4325	0.19219	-404.371079	-404.36017	-404.359226	-404.407344	39.354	
C	-0.1865149994	 1.3396555799	 0.3388608265	-0.39659
C	-0.1206317236	-0.1533053847	-0.0021554359	-0.183839
C	 0.5340477317	-0.4940039545	-1.3553884299	-0.0089
C	 0.7946130118	-2.0227375294	-1.4179624208	-0.359766
C	 1.570660799	-2.4402844268	-2.5841489513	 0.262314
N	 2.1945123579	-2.7550719471	-3.5050687188	-0.315484
C	-0.2280653301	-0.0047660437	-2.6161250336	 0.121238
C	-1.7032955061	-0.3896593873	-2.6690667723	-0.388529
O	-0.1866265317	 1.4152159915	-2.7356302083	-0.431087
H	 0.8167505897	 1.7808492968	 0.3538249664	 0.107672
H	-0.7772862031	 1.8967587789	-0.3890961675	 0.145776
H	-0.6238778089	 1.4829501038	 1.3319932574	 0.109808
H	 0.4486775217	-0.6659192371	 0.7843301029	 0.093574
H	-1.1274406304	-0.5877441987	 0.0337560517	 0.103031
H	 1.520202593	-0.0074884507	-1.3861861977	 0.079555
H	 1.3397854445	-2.3360878218	-0.5209478089	 0.152155
H	-0.1523689124	-2.5748019285	-1.4124386196	 0.152754
H	 0.2722683628	-0.4548553588	-3.4873606648	 0.095685
H	-2.2676980327	 0.0892822715	-1.8644676567	 0.130034
H	-2.1287120206	-0.0582915209	-3.6193595536	 0.132982
H	-1.8405684365	-1.4724428709	-2.5966970694	 0.114634
H	 0.7333395033	 1.6829709585	-2.8292044255	 0.282984
