15
gdb 37540	4.17458	1.75963	1.50834	2.7264	68.66	-0.2369	-0.0008	0.2361	850.1421	0.115075	-416.676043	-416.670301	-416.669356	-416.705925	24.061	
N	-0.0856144543	 1.5614501057	-0.1197954258	-0.32949
C	 1.3739619082	 1.2453605263	-0.0148947418	-0.056076
C	 1.246406706	 0.0977078232	 1.0209375294	-0.136464
C	-0.0446052193	 0.0801307269	 0.0395813993	-0.136718
C	 1.2129878186	-0.0781137435	-0.8736005595	 0.405066
N	 1.8321878533	-0.2444893484	-2.1673500236	-0.366902
C	 2.9990548841	-0.6294600973	-1.8005756479	 0.090762
O	 3.2813649368	-0.8704519527	-0.4706993866	-0.257338
C	 1.9483927638	-0.9289836946	 0.1159367623	 0.059118
H	-0.4115672797	 1.9980413715	 0.7470421243	 0.210945
H	 2.158698052	 1.9950971967	-0.1012775649	 0.097375
H	 1.2142016639	 0.1833589022	 2.1077062815	 0.086461
H	-0.9286759969	-0.5536815385	 0.1087930429	 0.098456
H	 3.8438282206	-0.7804395909	-2.4630919927	 0.143285
H	 1.6785101828	-1.9810644668	 0.2471017431	 0.091519
