15
gdb 6306	3.93077	1.17291	1.04916	3.8462	63.	-0.2676	0.0226	0.2902	1122.2785	0.118593	-396.036713	-396.027886	-396.026942	-396.070914	31.046	
C	-0.1247864014	 1.6278254364	 0.0561405532	-0.393422
C	 0.0004593844	 0.0939897883	 0.0751482981	-0.097335
N	 0.7221644812	-0.4176029736	 1.2287827158	-0.345027
C	 2.0904481074	-0.6039772068	 1.1343286667	 0.47457
N	 2.694431838	-0.9241436641	 2.3374604644	-0.568817
O	 2.7037104759	-0.474507396	 0.0916516233	-0.388624
C	-1.3247753887	-0.5439257269	 0.002141921	 0.27116
N	-2.3773108881	-1.0181022133	-0.0427467311	-0.3186
H	 0.8773366305	 2.0622089085	 0.0454832849	 0.149203
H	-0.6647296096	 1.9591663562	-0.8348312436	 0.14267
H	-0.6635843786	 1.9875086184	 0.9375907229	 0.128214
H	 0.5859338514	-0.2218413146	-0.7939721185	 0.172355
H	 0.3188119162	-0.242263964	 2.1364195771	 0.25074
H	 2.1553160007	-1.43980933	 3.0167454807	 0.255245
H	 3.6410921207	-1.2529991986	 2.2228116852	 0.267667
