18
gdb 124877	3.65761	1.20177	1.01315	1.667	77.6	-0.2245	0.0263	0.2508	1189.592	0.15007	-398.125621	-398.117582	-398.116637	-398.158688	30.683	
C	-0.2243520366	 1.3755486782	-0.6691435333	-0.474181
C	-0.0106663596	 0.0010022062	-0.0639498147	 0.180859
C	 1.0581012954	-0.8629056219	-0.6512939257	-0.263525
N	 1.2399172577	-0.2568771554	 0.6789445137	-0.346775
C	-1.2121558983	-0.6290720543	 0.5437174343	 0.210982
C	-1.2550034927	-1.3876920276	 1.6977742587	-0.132523
N	-2.5460733299	-1.7605602767	 1.8648121979	-0.180906
N	-3.3643082975	-1.2965019753	 0.902153185	-0.227216
C	-2.5566539974	-0.6097089036	 0.0983342598	-0.110407
H	 0.7034581207	 1.7575333081	-1.1076211804	 0.108447
H	-0.9786287426	 1.3476403647	-1.4625863013	 0.128599
H	-0.5680431976	 2.0865713502	 0.0896573277	 0.129032
H	 0.936331136	-1.9420784748	-0.6471680616	 0.117425
H	 1.6313819206	-0.4703526204	-1.4879981663	 0.107941
H	 1.8537086082	 0.5514702776	 0.610505305	 0.22716
H	-0.4713996531	-1.6643127572	 2.3832971169	 0.148548
H	-2.9352775381	-2.3138533632	 2.6089074091	 0.27299
H	-2.9678460551	-0.1233793045	-0.7743076549	 0.10355
