18
gdb 105277	2.3837	1.09983	0.90055	4.0004	79.11	-0.2667	-0.0459	0.2207	1341.6267	0.145667	-401.965514	-401.955969	-401.955025	-402.000356	34.012	
C	 0.0173060488	 1.5713936502	-0.2900351871	-0.391419
C	-0.0079369247	 0.1114609792	 0.1753064983	-0.262877
C	-1.4001086815	-0.513362594	 0.0801936125	 0.149766
C	-1.865315064	-1.1528599302	-1.2024158353	-0.319585
C	-1.6105218405	-2.0429501713	-0.0054033315	-0.146745
C	-0.4534880295	-2.9767868338	-0.0071560677	 0.158331
O	-0.4500639857	-4.030984989	 0.5754840681	-0.251087
C	-2.4077090213	 0.1667757052	 0.861571786	 0.264209
N	-3.2013574133	 0.7223034381	 1.4938903014	-0.342645
H	 1.0280054101	 1.9797744756	-0.2053485234	 0.12544
H	-0.2971414165	 1.6597953945	-1.3348988374	 0.123338
H	-0.6497349921	 2.1915869134	 0.31564228	 0.149365
H	 0.6855813322	-0.4779154403	-0.4311441427	 0.110005
H	 0.3426914504	 0.0414915745	 1.2109403618	 0.128798
H	-2.8929070672	-1.0198322407	-1.5171091187	 0.15319
H	-1.1394327389	-1.1837209353	-2.0091851377	 0.137105
H	-2.4729485862	-2.4278857117	 0.526509543	 0.136552
H	 0.4213898	-2.6527791344	-0.6132405395	 0.078258
