21
gdb 64042	2.44688	1.65566	1.36446	1.7055	82.26	-0.2382	0.0019	0.2401	1063.2473	0.182643	-387.094455	-387.085975	-387.085031	-387.126761	34.039	
C	 0.1196794366	 1.5064277105	 0.0227238613	-0.425753
C	-0.0396349911	-0.023115572	-0.0087167041	 0.229136
C	-1.5326334491	-0.4014180824	 0.0477778426	-0.418268
C	 0.610962762	-0.5790005667	-1.3059585791	-0.289733
C	 0.8672625823	-2.0629789313	-1.2769579976	-0.090881
C	 1.1651758486	-2.7059932678	-0.1466934515	-0.045118
C	 1.2236673324	-1.9747042495	 1.1418174239	-0.007984
O	 2.0495579443	-0.7818385487	 1.1875093977	-0.273847
C	 0.634816637	-0.6264808051	 1.2150402019	 0.05225
H	 1.1771800629	 1.7857433365	 0.0595520062	 0.127643
H	-0.3238176279	 1.9633817986	-0.8688196688	 0.110326
H	-0.3757441521	 1.9382703547	 0.8993917206	 0.108832
H	-2.0829224784	 0.0791447753	-0.7679671683	 0.111979
H	-1.6715069141	-1.48319183	-0.0381208514	 0.122777
H	-1.9869955128	-0.0761047357	 0.9902286976	 0.1106
H	-0.0234296781	-0.3185578908	-2.1609562363	 0.097471
H	 1.5660030417	-0.0626224529	-1.4661737144	 0.125052
H	 0.8371119866	-2.6018035731	-2.2200596513	 0.094604
H	 1.3655684766	-3.7727195634	-0.1366953187	 0.089236
H	 1.2848964324	-2.5711426041	 2.0498836874	 0.090011
H	 0.2373707201	-0.285254652	 2.1738608023	 0.081668
