19
gdb 53539	2.59774	0.94387	0.79329	0.6477	90.05	-0.2412	0.0487	0.2898	1532.637	0.155957	-348.686385	-348.676037	-348.675092	-348.723599	36.847	
C	 0.1932143911	 1.4574354412	-0.4291321412	-0.496341
C	 0.0968322229	 0.0367658386	-0.1260593987	 0.06274
C	 0.0158901269	-1.1365802379	 0.1298997936	 0.091572
C	-0.095962359	-2.5605287965	 0.4299727533	-0.442507
C	-1.4769411988	-3.1509747571	 0.113653089	 0.164063
C	-1.7707771697	-3.5281117532	-1.3281035236	-0.280338
C	-1.5346069306	-4.6105389658	-0.3139984801	-0.308086
C	-2.560890683	-2.6480736034	 0.9141110025	 0.299986
C	-3.4583798898	-2.2316572358	 1.5982521722	-0.470431
H	 0.8808484581	 1.64399941	-1.2616374392	 0.144337
H	-0.7829551557	 1.8695170222	-0.7080321095	 0.148847
H	 0.5568281608	 2.0258742735	 0.434139811	 0.146411
H	 0.6553697322	-3.1187871478	-0.1432757697	 0.120505
H	 0.1309850404	-2.7386013157	 1.4887031048	 0.133619
H	-2.7802039968	-3.3733217211	-1.6888658435	 0.127502
H	-0.992631739	-3.3191426132	-2.0542614202	 0.122395
H	-0.5957648835	-5.1534099657	-0.3445886859	 0.116767
H	-2.3833263326	-5.1931516367	 0.0231345208	 0.128347
H	-4.2515478841	-1.8571049954	 2.1960791843	 0.190613
