17
gdb 76938	2.68739	1.15546	1.05444	3.3229	75.81	-0.271	-0.0184	0.2525	1206.8198	0.133484	-418.018656	-418.009043	-418.008099	-418.053064	33.863	
C	 0.0599931754	 1.3881546141	-0.2621502851	-0.419113
C	-0.053029103	-0.0953925709	-0.0069037292	-0.028798
N	 1.0300317333	-1.0079913629	-0.274763328	-0.082305
C	 2.2388835716	-0.7457010701	-0.8937773246	 0.145781
O	 2.3616285058	-0.0856437812	-1.8958028411	-0.291192
C	 0.6869742871	-0.8101133244	 1.1266866049	 0.086819
C	 1.6240266727	-0.0798060472	 2.0736887866	-0.464365
C	 0.0030939239	-1.9358641884	 1.7445854529	 0.278021
N	-0.5466515546	-2.8105093328	 2.2627081896	-0.328715
H	 1.029947063	 1.7965967607	 0.0236779652	 0.135692
H	-0.0741345223	 1.5844697273	-1.3291158356	 0.160761
H	-0.7228725808	 1.9181259875	 0.2887138597	 0.134224
H	-1.0287030805	-0.5149919341	-0.2478060038	 0.127149
H	 3.0749921616	-1.279618904	-0.4045596476	 0.097366
H	 2.1214925186	 0.7533708517	 1.5749733178	 0.142513
H	 1.0644248359	 0.3067100273	 2.9299863056	 0.153558
H	 2.3901764623	-0.7608454425	 2.454314713	 0.152604
