19
gdb 15168	4.8094	0.95046	0.8342	2.9426	75.48	-0.2421	0.0282	0.2703	1397.2934	0.16414	-365.036685	-365.0275	-365.026556	-365.071633	31.827	
C	 0.3818859027	 0.6308678116	 0.5300228377	-0.249746
O	-0.1733740139	-0.0302144218	-0.5979895668	-0.196018
C	 0.6237888574	-0.9576258041	-1.175863437	 0.137588
N	 0.2200456107	-1.5883330198	-2.1849182887	-0.23683
C	 1.068878959	-2.5892296992	-2.8125921315	-0.14674
C	 2.4726890772	-2.7976477118	-2.2782728591	 0.008597
C	 2.7151045459	-3.697456109	-1.0888103261	-0.253636
C	 3.1397361174	-4.1360832824	-2.4673010803	-0.28473
H	 0.618578331	-0.0742504909	 1.3368453553	 0.123731
H	 1.2880074468	 1.1906296364	 0.2657200066	 0.123019
H	-0.3771275587	 1.3307853819	 0.8820228432	 0.143891
H	 1.5960241547	-1.0823242888	-0.6827100478	 0.079071
H	 0.5283854437	-3.5458153959	-2.770782238	 0.104812
H	 1.1228487495	-2.3371572151	-3.8806541695	 0.111767
H	 3.1250558803	-1.9314897522	-2.362562906	 0.084236
H	 3.4852889266	-3.4233830656	-0.3757698042	 0.108631
H	 1.8538322831	-4.1870415865	-0.6455237748	 0.116466
H	 2.5672390994	-4.9227358897	-2.9485257583	 0.113939
H	 4.1988794272	-4.1549917571	-2.6983195748	 0.111951
