22
gdb 58881	3.11459	1.27167	1.08917	1.6579	86.75	-0.2254	0.0201	0.2455	1225.6367	0.194739	-367.202991	-367.194116	-367.193171	-367.236241	35.002	
C	-0.082852625	 1.5632802217	 0.4385082322	-0.382748
C	-0.0033648501	 0.0886894149	 0.0044875585	-0.085563
C	 0.9399542615	-0.6987069647	 0.9238791931	-0.405928
C	-1.3990684357	-0.5074560958	-0.1091178732	 0.334938
N	-2.2357250815	-0.7593991972	 1.1051838968	-0.372595
C	-1.8225463727	-1.894011839	 0.246416072	-0.109782
C	-2.8992064865	-2.3467805669	-0.7335136859	-0.268803
C	-3.0952843124	-1.1229033813	-1.6057921446	-0.079452
C	-2.2683977427	-0.1306590352	-1.2742042062	-0.107855
H	 0.9100863195	 2.0242178863	 0.4386965558	 0.108886
H	-0.7243338208	 2.147166718	-0.2282480011	 0.118911
H	-0.4950374958	 1.649115179	 1.4499150019	 0.118256
H	 0.4260263995	 0.0600054441	-1.0066415109	 0.079845
H	 1.0772020331	-1.7270265342	 0.5781048118	 0.118695
H	 1.924320632	-0.2215673672	 0.9539745402	 0.115832
H	 0.5708046119	-0.7331412359	 1.9559865123	 0.109826
H	-1.6293764668	-0.7557410991	 1.9253327872	 0.218865
H	-1.1303598972	-2.6202297069	 0.6578249614	 0.083086
H	-2.5746741588	-3.2177639659	-1.3184984599	 0.102154
H	-3.8221033041	-2.6344534926	-0.2153016489	 0.118456
H	-3.8506249966	-1.0771476343	-2.3824404447	 0.093028
H	-2.2244804307	 0.8410530321	-1.752333508	 0.091951
