18
gdb 112309	2.90777	1.41245	1.05962	2.8405	74.19	-0.2585	0.0249	0.2834	1150.8697	0.148402	-439.088408	-439.080239	-439.079295	-439.121492	30.616	
C	-0.2217141099	 1.3062071721	 0.0762873357	-0.243489
O	-0.1155016543	-0.1095542401	 0.0999314958	-0.226648
C	 0.7669711167	-0.5959313014	 1.047028342	 0.19871
O	 0.2645755883	-0.3412386218	 2.3816607319	-0.274016
C	 0.3266694642	-1.4666152756	 3.1678984771	 0.413536
N	 0.1723941445	-1.4767365012	 4.4202947714	-0.547193
C	 0.619188216	-2.6471154482	 2.3134081949	-0.113582
C	-0.3506450079	-2.8711129855	 1.1696426596	-0.280603
C	 0.9127248724	-2.1000260397	 0.9369911156	-0.090491
H	 0.7608891278	 1.7755421569	-0.0786367716	 0.110817
H	-0.874087212	 1.5594126872	-0.7613632974	 0.133359
H	-0.6556422474	 1.6898226796	 1.0063292548	 0.133984
H	 1.734886176	-0.0753076814	 0.9725199494	 0.078226
H	 0.0164427676	-0.5293600906	 4.7684651427	 0.221208
H	 1.1411874599	-3.4829051001	 2.7570114953	 0.117738
H	-0.3968554959	-3.8778411553	 0.7716111699	 0.122703
H	-1.290928066	-2.3325939199	 1.1675063585	 0.141054
H	 1.6975710501	-2.4941085052	 0.3050820645	 0.104685
