14
gdb 8262	9.09931	0.91949	0.87573	2.2217	60.55	-0.2587	-0.0379	0.2208	1221.002	0.104737	-419.70206	-419.694365	-419.69342	-419.735422	26.76	
O	-0.503613798	 0.1340132382	-0.2110473912	-0.266885
C	-0.2636086588	 1.2991240441	-0.131303697	 0.166473
O	 0.9729357495	 1.771189999	 0.1330400589	-0.186044
C	 1.1667261277	 3.1766854452	 0.2098390747	 0.121175
C	 1.8912200036	 3.6507667444	 1.4995994345	-0.368621
C	 2.8804779114	 4.4036500064	 0.5920453512	 0.400995
O	 3.6997708538	 5.2515126248	 0.7816863115	-0.277057
C	 2.3334713592	 3.708123366	-0.6673442049	-0.368617
H	-1.0106463041	 2.1063787388	-0.2620796242	 0.082539
H	 0.2216829556	 3.6987295485	 0.0307960281	 0.102731
H	 1.329802766	 4.2425985945	 2.2256174113	 0.139436
H	 2.3733337704	 2.8126292554	 2.0137092317	 0.157214
H	 2.9870265154	 2.8921951977	-0.9934560901	 0.15722
H	 2.0951096682	 4.3418463671	-1.5241627044	 0.13944
