19
gdb 70146	2.75585	1.57471	1.19313	1.4577	81.78	-0.2189	0.0126	0.2316	1078.315	0.160069	-385.875166	-385.867071	-385.866127	-385.907605	32.335	
O	 0.0056235084	 1.4049225516	-0.0688308397	-0.469228
C	 0.0578348941	-0.0015658977	-0.0547423301	 0.346458
C	-0.586326109	-0.6980795444	-1.2297361665	-0.355652
C	-1.3176493118	-0.6323691005	 0.1038677502	-0.08851
C	-1.5849635376	-1.8245309572	 0.9402020354	-0.034919
C	-0.7718009973	-2.8413046115	 1.2350892612	-0.08449
C	 0.6691926348	-3.027934291	 0.8058276242	-0.333573
C	 1.5415583611	-1.801412059	 0.9760789305	-0.082048
C	 1.2626162851	-0.5458022072	 0.6223724692	-0.093436
H	 0.6435422624	 1.714059321	-0.7220881367	 0.280917
H	-0.9599429465	-0.0608859563	-2.0235531517	 0.115085
H	-0.1885245713	-1.6534375898	-1.5494720456	 0.121283
H	-2.0987294453	 0.1192579758	 0.1331739468	 0.102098
H	-2.5885346283	-1.8560070317	 1.3587636894	 0.085767
H	-1.1739725444	-3.6333971859	 1.8617263104	 0.08854
H	 1.1007877046	-3.8374526391	 1.4023590758	 0.106447
H	 0.7182460956	-3.394658486	-0.2316271673	 0.120964
H	 2.5025058644	-1.9767693902	 1.4534543887	 0.090326
H	 1.994269641	 0.2252216389	 0.8546620558	 0.083972
