20
gdb 57706	3.06012	0.76103	0.71931	3.2839	80.71	-0.2623	-0.0336	0.2287	1623.4451	0.16772	-403.180883	-403.170266	-403.169322	-403.217377	37.318	
C	 0.0643872764	 1.5811289869	 0.0881220044	-0.407081
C	 0.035132468	 0.037784198	 0.0183122151	 0.073213
C	 0.9137308712	-0.5679279874	 1.1356901645	-0.408853
C	-1.4216763677	-0.5118547611	 0.0628241904	-0.20645
C	-2.2097236527	-0.177441788	 1.3404258574	-0.303966
C	-3.5577044124	-0.8693391087	 1.3409729813	 0.162336
O	-4.6147884922	-0.3124574607	 1.4767891246	-0.230336
C	 0.6006315318	-0.3749335619	-1.2791007642	 0.269748
N	 1.0392099442	-0.7027262783	-2.2971509082	-0.338088
H	 1.0849352784	 1.9522519616	-0.0354134908	 0.137998
H	-0.5563536528	 2.0230531337	-0.6959881717	 0.137066
H	-0.3057098639	 1.9224049994	 1.0583187794	 0.128435
H	 0.5666030481	-0.2356050145	 2.1177270544	 0.126557
H	 0.8907323857	-1.6608789911	 1.1082124951	 0.134119
H	 1.9523750862	-0.2473522766	 1.0216826334	 0.140008
H	-1.9631043475	-0.1205160213	-0.8054664653	 0.131117
H	-1.3803038551	-1.6003968986	-0.0629749206	 0.120947
H	-1.665937754	-0.540112903	 2.2235582129	 0.125221
H	-2.3795183234	 0.8952878717	 1.457979892	 0.130822
H	-3.5043530784	-1.9749730001	 1.2021688159	 0.077187
