18
gdb 49526	4.67315	1.13466	1.0586	3.5478	78.32	-0.2417	-0.0333	0.2084	1160.8964	0.147048	-401.847121	-401.839407	-401.838463	-401.879315	30.04	
O	-0.2012561981	 0.0068273302	 0.0724857505	-0.237591
C	-0.0216911068	 1.1720191448	-0.1767556669	 0.120801
C	 1.25962017	 1.9394591899	-0.0038753376	-0.037859
C	 1.6004057002	 2.6380282089	 1.357646655	-0.180099
C	 1.9210087	 1.2103330389	 1.8562370915	-0.179792
N	 2.5375554703	 1.1999459644	 0.4329412601	-0.184929
C	 3.0256837458	 2.5948573762	 0.8102053193	 0.469855
C	 3.880851085	 3.480985588	-0.0147224449	-0.37982
C	 4.3687796933	 2.9340417187	 1.3333069758	-0.382693
H	-0.8465637594	 1.8042228434	-0.5834868815	 0.077282
H	 1.4154909414	 2.5669562893	-0.8893372103	 0.094633
H	 1.0697188929	 3.457080887	 1.8539278556	 0.077018
H	 2.6724951034	 1.1185861038	 2.6420824312	 0.109864
H	 1.1095706252	 0.4959288326	 1.9770973768	 0.135304
H	 4.3303457738	 3.0640020453	-0.910059158	 0.129859
H	 3.6400802961	 4.5375112608	-0.0776538218	 0.118056
H	 4.4509088802	 3.628186697	 2.1635971642	 0.119068
H	 5.1325906467	 2.1637302009	 1.308623201	 0.131043
