14
gdb 12602	3.13993	2.1318	1.33092	1.7107	57.58	-0.2619	-0.049	0.2129	867.5252	0.10631	-419.740214	-419.732767	-419.731823	-419.772538	26.337	
C	-0.1894578872	 1.5915407902	 0.0110440049	-0.395145
C	 0.0845255743	 0.0878059569	-0.0139119438	-0.283515
C	 0.9022458089	-0.4152503323	-1.1912262959	 0.376856
O	 0.834270335	-0.070447333	-2.3392718336	-0.29277
C	 1.8732326535	-1.4546872132	-0.628738843	-0.192459
O	 1.7920284293	-1.3484502003	 0.7940842725	-0.220113
C	 0.8478691438	-0.4428208165	 1.1941946546	 0.445762
O	 0.6940505213	-0.1586944445	 2.3436402778	-0.324843
H	 0.7450941061	 2.1584539392	 0.0382109546	 0.134795
H	-0.7406930249	 1.8839000768	-0.8851298615	 0.143247
H	-0.7712998684	 1.8497414984	 0.8979294369	 0.148393
H	-0.8707522002	-0.458772621	-0.0385270674	 0.152124
H	 1.5901075973	-2.4655367704	-0.9447593703	 0.151615
H	 2.8983581113	-1.2597629902	-0.9576575259	 0.156053
