18
gdb 63324	2.72415	1.47912	1.25017	4.7135	71.21	-0.2497	-0.0093	0.2404	1059.3789	0.146583	-439.092434	-439.084062	-439.083118	-439.125228	32.551	
C	-0.2184161837	 1.5860266005	-0.0000982521	-0.441006
C	 0.0405195599	 0.0792744301	-0.0026909928	 0.36894
O	-1.1941182683	-0.6396863415	 0.0292235555	-0.474776
C	 0.9298807843	-0.4211124251	-1.1583224073	-0.397749
C	 1.8492580716	-1.4927648931	-0.5497051805	 0.397657
O	 2.5450703874	-2.2551245894	-1.154713412	-0.308769
N	 1.770044569	-1.461665005	 0.8886602606	-0.138061
C	 2.2176149408	-0.1354268802	 1.4051097808	-0.268012
C	 0.7814508942	-0.4210274331	 1.2389503362	-0.028312
H	 0.7155634738	 2.1540733017	 0.0399887391	 0.119969
H	-0.7536040621	 1.8886846471	-0.908011592	 0.113586
H	-0.8312184869	 1.8606650697	 0.8632635771	 0.131241
H	-1.7239402842	-0.3543246422	-0.7228801171	 0.2801
H	 0.3437349935	-0.8509691791	-1.9730237971	 0.13569
H	 1.5572027841	 0.3663021025	-1.5898004801	 0.131344
H	 2.6733443708	-0.1756935901	 2.3887574348	 0.138463
H	 2.7079736578	 0.5402789171	 0.7083217704	 0.125102
H	 0.1601788779	-0.6342804598	 2.1026362064	 0.114593
