18
gdb 17562	3.19714	2.09396	1.64257	1.3634	72.04	-0.2278	0.0758	0.3035	855.2871	0.153832	-347.755738	-347.748467	-347.747523	-347.786701	29.351	
O	-0.0910685478	 1.4115551966	 0.0004638633	-0.451295
C	 0.0560335046	 0.0387355652	-0.0011661648	 0.341875
C	-0.8476883129	-0.8089297184	 0.827133516	-0.310878
C	 0.6512198462	-0.9390159835	 1.0267449076	-0.140017
C	 1.2610309341	-1.772931267	-0.1102988898	-0.317037
C	 0.6709998508	-0.7695658892	-1.1279248888	 0.313627
C	 0.1281352043	-1.0014580509	-2.5058017658	-0.326871
C	 1.3854185823	-0.1792179935	-2.3064155613	-0.347562
H	 0.7744734266	 1.8012098277	-0.1692412275	 0.284394
H	-1.3563434582	-0.2643803051	 1.6164614002	 0.11609
H	-1.426340638	-1.6179395927	 0.3853839073	 0.104385
H	 1.1112352085	-0.7462608976	 1.9877716672	 0.088257
H	 2.3546914114	-1.777998887	-0.1066989637	 0.101553
H	 0.9015076517	-2.8051676851	-0.1879716003	 0.096697
H	 0.233534521	-1.9918232018	-2.9370888644	 0.11108
H	-0.7788950268	-0.4799715814	-2.7947452578	 0.117126
H	 1.3089276759	 0.8928550419	-2.4646549854	 0.107379
H	 2.3374865661	-0.6078805082	-2.6035002022	 0.111197
