18
gdb 86687	2.45818	1.25936	0.93395	4.436	77.07	-0.2581	-0.0394	0.2188	1262.6959	0.146456	-401.965016	-401.95584	-401.954896	-401.999659	32.787	
C	 0.066777945	 1.6041938371	-0.1839266895	-0.421306
C	 0.0942520553	 0.0989467357	 0.0087630497	 0.035998
C	 1.0312491051	-0.7705049768	-0.8688029232	-0.256452
C	 1.3005296582	-1.6901863225	 0.3608181259	-0.077025
C	 2.7040320333	-2.2130980836	 0.5330982719	 0.145782
O	 2.9850034287	-3.3837478474	 0.5590104401	-0.247436
C	 0.7829977045	-0.5226318996	 1.2822675004	-0.208786
C	 1.8351457574	 0.3102052319	 1.8481678057	 0.285884
N	 2.6650167372	 0.9861636218	 2.2870553846	-0.332806
H	 1.0694628346	 2.0354479561	-0.1086815204	 0.141983
H	-0.3369362897	 1.8516529027	-1.1713239698	 0.124685
H	-0.5648914709	 2.0904766036	 0.5667958445	 0.128433
H	-0.9220831776	-0.3053807627	-0.0324585413	 0.095333
H	 0.6152109137	-1.2462047739	-1.7581077704	 0.122125
H	 1.9337176723	-0.2173130001	-1.151339297	 0.122657
H	 0.6060464881	-2.5309724691	 0.4013218445	 0.108442
H	 3.4877544992	-1.4275960914	 0.6090162669	 0.101678
H	 0.1145514554	-0.8336397319	 2.0884236372	 0.13081
