17
gdb 95143	2.22954	1.91901	1.48845	3.5725	67.27	-0.2448	-0.0165	0.2282	947.0129	0.13669	-458.956636	-458.949043	-458.948098	-458.988644	29.504	
O	-0.0989025405	 1.4284891028	-0.1040093791	-0.424893
C	 0.0179143	 0.0170198796	 0.0180489847	 0.092101
C	 0.6929993094	-0.4321138251	 1.3324133285	-0.21701
C	-0.275889706	-0.413140118	 2.5367321152	-0.239984
C	-1.6649185861	-0.8621409511	 2.0395701317	-0.031201
O	-1.507581748	-1.7049362807	 0.852514505	-0.298383
C	-1.4308460333	-0.5221428089	 0.0076113454	-0.051221
C	-2.2417957618	 0.2056765662	 1.0966851308	 0.446606
O	-3.0593647374	 1.0678015335	 1.1574674007	-0.301339
H	 0.7828907235	 1.7971408783	-0.2153557617	 0.289158
H	 0.5755822966	-0.3961696321	-0.8348620568	 0.076941
H	 1.0514188234	-1.454643228	 1.1893712074	 0.120606
H	 1.5721613259	 0.1922765494	 1.524085849	 0.091708
H	 0.0889404653	-1.0792367717	 3.3241517184	 0.111778
H	-0.3578477585	 0.5883786786	 2.9728216954	 0.126183
H	-2.304321159	-1.3167869981	 2.7990789099	 0.103302
H	-1.8545180834	-0.6704460747	-0.9868473244	 0.105649
