20
gdb 118659	2.94712	0.74229	0.61802	3.3767	76.97	-0.2701	0.0336	0.3037	1802.4748	0.168576	-440.281178	-440.270207	-440.269263	-440.318481	37.009	
C	-0.009871833	 1.3820381054	-0.0529733354	-0.232094
O	-0.0036673312	-0.0253177121	 0.0340996523	-0.230545
C	-1.2896804333	-0.5863142368	 0.0009296715	-0.059398
C	-1.1456822531	-2.1154492833	-0.0053321652	-0.175559
C	-2.5141642496	-2.8125472695	 0.1300231063	-0.186477
C	-2.4191795273	-4.331744061	 0.2149756562	-0.089881
O	-3.7361916572	-4.8196560967	 0.4097067039	-0.419986
C	-0.4403335635	-2.5544055299	-1.2158125395	 0.295579
N	 0.0869758351	-2.9216823386	-2.1764235657	-0.335881
H	 1.0305763952	 1.7121134384	-0.0243300609	 0.136623
H	-0.4692184333	 1.7281931292	-0.9913041034	 0.113381
H	-0.5533388873	 1.8397883155	 0.7883348568	 0.106893
H	-1.8760266776	-0.2887072214	 0.8862683768	 0.096476
H	-1.8452639598	-0.256975303	-0.8921952544	 0.104945
H	-0.5145494075	-2.3820535783	 0.852006595	 0.135593
H	-3.0031028295	-2.4427013122	 1.0376126227	 0.118108
H	-3.1560603773	-2.5445527696	-0.7158932326	 0.125695
H	-1.97227679	-4.7304095036	-0.7071900315	 0.116878
H	-1.7585173226	-4.6160227228	 1.0511257859	 0.088744
H	-3.7119020172	-5.7796660696	 0.3625439613	 0.290904
