23
gdb 117628	2.67979	0.92607	0.82788	3.7378	82.1	-0.2379	-0.0092	0.2287	1518.4446	0.201628	-425.445087	-425.433511	-425.432567	-425.482298	41.497	
C	 0.0602567914	 1.4650427645	-0.1711907795	-0.485658
C	 0.0058823587	-0.0244871047	 0.1418058084	 0.382901
O	 1.0110170913	-0.6110444818	 0.4712978318	-0.307126
C	-1.3606066328	-0.7498902592	 0.0506568498	 0.127488
C	-2.1188123341	-0.4051022079	 1.3570474287	-0.420738
C	-2.1636237565	-0.2421169034	-1.1638385527	-0.430205
C	-1.088239442	-2.2673102959	-0.0516256344	-0.16996
C	-2.3076241322	-3.1807114149	 0.0264677197	-0.105029
O	-1.8357954451	-4.5082674278	-0.164282524	-0.41746
H	 1.0049606717	 1.8664945885	 0.197298596	 0.142059
H	 0.0154989238	 1.6151317658	-1.2557750585	 0.146073
H	-0.7768416232	 2.0184768349	 0.2630009216	 0.133296
H	-2.2148720377	 0.6765300745	 1.4940194006	 0.114339
H	-3.1315610949	-0.8183842868	 1.3366486789	 0.121793
H	-1.6007508772	-0.8124422304	 2.2306159887	 0.131099
H	-1.6342818969	-0.4382623239	-2.102412556	 0.120751
H	-3.1340289358	-0.7436388563	-1.2210535213	 0.120768
H	-2.3615882563	 0.831446401	-1.1035328615	 0.115051
H	-0.5751585466	-2.4757653573	-0.9977244389	 0.104716
H	-0.3886279175	-2.5556697624	 0.7364411052	 0.126229
H	-2.804106532	-3.0799610362	 1.0037526758	 0.08501
H	-3.0490240367	-2.9178463443	-0.7446502606	 0.080605
H	-2.5858751992	-5.105591506	-0.0926709779	 0.283998
