17
gdb 75720	2.17627	1.67603	1.333	3.5296	68.47	-0.2324	-0.034	0.1984	1029.1265	0.133912	-458.935227	-458.926697	-458.925753	-458.968434	31.766	
C	-0.5932550041	 1.351028459	-0.0634701374	-0.427218
C	 0.0112078862	-0.0431719867	 0.0123151263	-0.148895
C	 1.245813809	-0.3949324224	-0.8434956936	 0.421537
O	 1.5212952528	-0.2304303143	-1.9955966589	-0.29818
C	 1.9946843755	-0.9804352565	 0.3719217404	-0.115055
O	 2.7696664576	 0.0920256999	 0.9675046669	-0.280691
C	 1.7403075315	 0.4022266885	 1.9336131642	-0.136305
C	 0.7563947921	-0.5747742114	 1.2697155793	 0.330285
O	-0.0373738145	-1.4054076098	 2.0479766849	-0.468545
H	 0.1465954226	 2.1250152227	 0.1609538758	 0.129492
H	-0.9657484473	 1.538460153	-1.0746763526	 0.141785
H	-1.429602387	 1.4589284694	 0.6337441206	 0.129266
H	-0.7511350268	-0.8012275885	-0.2189648609	 0.125991
H	 2.5202776019	-1.9375393248	 0.331776695	 0.094399
H	 2.0392277451	 0.0892689404	 2.9452934676	 0.096277
H	 1.4834228064	 1.4664226799	 1.952328936	 0.117935
H	 0.4929782291	-1.7608684884	 2.7696408565	 0.287923
