23
gdb 116337	2.78853	1.21955	0.94184	1.1663	84.72	-0.2588	0.0786	0.3375	1313.5657	0.208208	-388.291411	-388.282603	-388.281659	-388.324769	34.674	
O	-0.059685129	 1.4512727635	 0.0687030298	-0.425963
C	 0.0294328347	 0.0331118928	 0.0137799975	-0.08831
C	-1.3870960474	-0.5366356562	-0.0457567068	 0.023738
C	-2.156307312	-0.0576715689	-1.2894875234	-0.204509
C	-3.5313677668	-0.7275922021	-1.3703698275	-0.200024
C	-3.4132341192	-2.246899454	-1.5744996469	-0.215542
C	-2.3860662668	-2.9027056919	-0.6490739798	-0.033967
C	-0.9295529986	-2.9480947421	-1.0484717201	-0.289746
C	-1.3684729324	-2.0527443591	 0.0856187966	-0.022442
H	 0.8321254958	 1.8095824884	 0.055091328	 0.285351
H	 0.5959674264	-0.2967687791	-0.8718605684	 0.083427
H	 0.548943902	-0.3642969021	 0.901098505	 0.078352
H	-1.9198375163	-0.1399709292	 0.83104145	 0.077382
H	-2.249964957	 1.0302700328	-1.2449264784	 0.112097
H	-1.5794575691	-0.2800546275	-2.1988996291	 0.085149
H	-4.0783131621	-0.5238173912	-0.4399476498	 0.092967
H	-4.1243623519	-0.2916037573	-2.1820794778	 0.087065
H	-4.3913141122	-2.7135232004	-1.4166730781	 0.093778
H	-3.148372487	-2.4492076534	-2.6204281454	 0.095829
H	-2.7480307772	-3.7715298488	-0.1079106354	 0.078853
H	-0.3482334381	-3.8323631869	-0.8097228451	 0.103172
H	-0.6626519378	-2.490260206	-1.9963436357	 0.106809
H	-1.0936973381	-2.3997113512	 1.078843071	 0.076535
