20
gdb 90895	2.41477	1.92217	1.42363	2.1708	76.79	-0.2327	0.0603	0.293	990.8872	0.171821	-403.112844	-403.104954	-403.10401	-403.144582	32.12	
C	-0.1656810794	 1.5724784169	-0.0032402413	-0.43421
C	 0.0278325557	 0.057791748	 0.0058127681	-0.004372
C	 0.8878903123	-0.5102989848	-1.1486106437	-0.186974
N	 1.5891992999	-1.7049871876	-0.6154431222	-0.104565
C	 2.5553531644	-1.4570143827	 0.4693462634	-0.034399
C	 2.296155998	-0.1329537045	 1.1986591017	-0.324261
C	 0.7715539772	-0.5173950201	 1.2249333172	 0.390507
O	 0.1019330829	-0.4512301184	 2.4511448015	-0.500307
C	 1.175687076	-1.9434472746	 0.7607605002	-0.103941
H	 0.7909391243	 2.1049865045	 0.0306333937	 0.1197
H	-0.6934224976	 1.8973837521	-0.90558097	 0.123871
H	-0.7671353116	 1.90160482	 0.8527613299	 0.106425
H	-0.9596409268	-0.4226452456	-0.0125326337	 0.078469
H	 0.2787686328	-0.8187155609	-2.0029670148	 0.10839
H	 1.6197175197	 0.2189171754	-1.5142352716	 0.101721
H	 3.4943141272	-1.9981261266	 0.4306833052	 0.091646
H	 2.6985862062	-0.1650698113	 2.2141973076	 0.110755
H	 2.6019575794	 0.7996024429	 0.7127796824	 0.088461
H	-0.030160402	 0.4758735975	 2.6769420313	 0.280101
H	 0.7785474415	-2.8956278402	 1.0908827653	 0.092983
