19
gdb 64156	3.69469	0.98766	0.94279	3.3249	81.69	-0.2463	-0.0637	0.1826	1324.8822	0.156879	-423.053904	-423.044564	-423.04362	-423.088319	34.119	
C	 0.1303015262	 1.4595295002	-0.0642464381	-0.405516
C	-0.0937271265	-0.0575680709	 0.0370699533	 0.346107
C	-1.5931556551	-0.394844871	 0.0342404484	-0.405514
O	 0.5265491239	-0.6942685386	-1.0970928275	-0.313212
C	 1.5374921047	-1.6123587685	-0.6892137773	-0.174859
C	 1.5437670431	-1.53823693	 0.8153472725	 0.208359
C	 2.434537723	-2.3206608609	 1.6725782014	 0.073796
O	 3.255470761	-3.1060816158	 1.2520546155	-0.264545
C	 0.6219626562	-0.6599841387	 1.2189705848	-0.231611
H	 1.1987544823	 1.6901699269	-0.0709219108	 0.122788
H	-0.3093830774	 1.8333858666	-0.9934000752	 0.130591
H	-0.3365414875	 1.9849496057	 0.7751204308	 0.113344
H	-2.0473565786	-0.0365460252	-0.8940599501	 0.13059
H	-1.7435981706	-1.4756956193	 0.0971708567	 0.122788
H	-2.1067481552	 0.0802199745	 0.8763107131	 0.113344
H	 1.3057144585	-2.6240175904	-1.0507233777	 0.120694
H	 2.5085756791	-1.3300288338	-1.1194990987	 0.120699
H	 2.3072762037	-2.1444029019	 2.7634100776	 0.072944
H	 0.3954129491	-0.394874999	 2.2454348614	 0.119215
