15
gdb 9231	4.5445	1.22036	1.0732	2.9325	63.92	-0.2521	0.0244	0.2765	1089.3741	0.118474	-395.999086	-395.990369	-395.989425	-396.03272	30.218	
C	 0.2225578912	 1.172063284	-0.4018389639	-0.226341
O	-0.0840326279	-0.1070953117	 0.1566134914	-0.249002
C	-1.3874262203	-0.4245168483	 0.2506512343	 0.490752
N	-1.5321097413	-1.7189395355	 0.6930870826	-0.568933
N	-2.2932714057	 0.4103763474	-0.0933748652	-0.348381
C	-3.6768878414	-0.0205810233	-0.0669954263	-0.285678
C	-4.1702829917	-0.4062509322	 1.2700029711	 0.249162
N	-4.4962332699	-0.7449080575	 2.3270460531	-0.322809
H	 1.311669214	 1.2265798422	-0.4191941598	 0.129698
H	-0.1837798546	 1.2616920236	-1.4123208324	 0.138042
H	-0.1930882846	 1.9728713918	 0.2144050019	 0.142232
H	-0.6874714648	-2.1249477906	 1.067597953	 0.264706
H	-2.3571171904	-1.9161964623	 1.2413005956	 0.279678
H	-4.3053753264	 0.7992764087	-0.4291598476	 0.157283
H	-3.8599201162	-0.8777004263	-0.7346939075	 0.149592
