20
gdb 104630	2.38339	1.28455	0.99608	4.0897	79.42	-0.2749	0.0332	0.3082	1253.9598	0.169984	-403.157586	-403.148033	-403.147088	-403.191809	35.633	
C	 0.2806134194	 1.2633336449	 0.3188640524	-0.400431
C	 0.1974245876	-0.2028578111	-0.1101495218	-0.243733
C	 0.6916184544	-0.4710710399	-1.5466070539	 0.178178
C	 2.2528883656	-0.3920736641	-1.7056506643	-0.263656
C	 2.328851654	-1.9333412136	-1.6555477455	 0.118483
O	 2.7470826955	-2.3358217921	-0.3641682274	-0.426812
C	 0.7917224416	-2.0013042072	-1.8811068959	-0.301753
C	-0.0665816838	 0.3103390915	-2.5174226071	 0.237856
N	-0.6656317012	 0.9225309513	-3.295124426	-0.358999
H	 1.3086972668	 1.6377227213	 0.2749252228	 0.121013
H	-0.335963405	 1.9007616607	-0.3220594768	 0.142317
H	-0.0691982059	 1.3805634289	 1.3485406171	 0.119937
H	 0.7992732881	-0.8301511564	 0.5549940431	 0.123514
H	-0.8384031788	-0.555265091	-0.0333481301	 0.108786
H	 2.5585591821	 0.0174340249	-2.6693985758	 0.123827
H	 2.7879191897	 0.1200236964	-0.9042230948	 0.126484
H	 2.9405202113	-2.4082603259	-2.4322553356	 0.07729
H	 2.6470508201	-3.291587389	-0.3006533465	 0.286561
H	 0.2344758442	-2.6630311276	-1.2128609183	 0.109049
H	 0.5249672443	-2.2224753516	-2.9165730558	 0.122089
