15
gdb 30969	2.63221	1.33271	0.93107	4.4981	64.79	-0.1936	0.0435	0.2372	1206.0503	0.112113	-491.11739	-491.108439	-491.107495	-491.15162	31.761	
C	 0.2221717617	 1.1853737484	-0.4127696902	-0.331491
N	-0.4247194823	 0.1909780382	 0.4570610586	-0.394575
C	 0.4323489268	-0.6225561416	 1.1980841467	 0.178379
C	 0.8649289768	-1.8827622688	 1.0545008732	 0.31521
O	 0.6836763898	-2.7728686042	 0.0650919253	-0.425623
O	 1.65657993	-2.2542679906	 2.1238686174	-0.243753
C	 1.746009658	-1.1687863294	 2.9941513739	 0.48756
O	 2.339180095	-1.193821929	 4.0367233139	-0.399122
N	 1.0391642405	-0.1611801985	 2.3911968451	-0.401798
H	 0.8665224027	 0.7384325373	-1.1833636193	 0.121396
H	-0.550902914	 1.7869865175	-0.8976841247	 0.12782
H	 0.8359090416	 1.8542908873	 0.1968594982	 0.134596
H	-1.0720242367	-0.3814367727	-0.0703678903	 0.243884
H	 0.5132363724	-3.6419077918	 0.4513571479	 0.312293
H	 0.7776349775	 0.6771395979	 2.8809333744	 0.275224
