18
gdb 97730	5.93933	0.65731	0.60291	0.987	87.46	-0.2351	-0.0178	0.2173	1871.1816	0.147627	-401.943626	-401.93426	-401.933316	-401.980016	32.073	
C	-0.0855675153	 1.5136455271	-0.0393237127	-0.367262
C	 0.0887966933	-0.0160448113	-0.0076334727	-0.332642
C	 0.7545435724	-0.4893755867	 1.1981956453	 0.298263
C	 1.3103466249	-0.8541702943	 2.203113646	-0.068419
C	 1.9652995299	-1.2912768991	 3.386666328	 0.218369
N	 2.6740915193	-0.563821554	 4.1571832985	-0.323129
C	 3.1378714676	-1.439729217	 5.2406055333	-0.198301
C	 2.5424893373	-2.8330759167	 4.9099092641	-0.118003
O	 1.7969824012	-2.6131601485	 3.6930079045	-0.255438
H	 0.88384999	 2.015855396	 0.0107986922	 0.136606
H	-0.586452499	 1.8169309417	-0.9630495263	 0.118728
H	-0.6863400041	 1.85351971	 0.8081114416	 0.13465
H	-0.8898096177	-0.5054011712	-0.0922717136	 0.138842
H	 0.6652223096	-0.3422135789	-0.8830330557	 0.139613
H	 4.2328265955	-1.446139899	 5.2701642445	 0.119637
H	 2.7916314264	-1.0518548467	 6.2048914391	 0.119547
H	 3.3002916273	-3.5969996658	 4.7136438729	 0.119406
H	 1.8520881215	-3.2067592557	 5.6713295009	 0.119532
