20
gdb 30660	3.01377	1.2462	0.99894	1.4072	83.31	-0.1726	0.0416	0.2142	1254.9644	0.170898	-403.169008	-403.159761	-403.158817	-403.203576	34.078	
C	 0.2044990857	 1.5718275473	 0.1580618526	-0.382527
C	 0.0823781652	 0.052160122	-0.0172768846	-0.164046
N	 0.6537312983	-0.7421008911	 1.070599677	-0.160029
C	-0.0677121382	-0.7664014259	 2.3279189747	-0.33589
C	 2.0255801719	-0.820402837	 1.175703284	 0.466763
C	 2.8721280294	-1.032696751	 2.2308128521	-0.315357
C	 4.1911648392	-1.0952347065	 1.6637076545	-0.166273
C	 4.0555208834	-0.9052065207	 0.331610264	-0.03795
O	 2.7263075045	-0.7354234277	 0.0150305573	-0.202422
H	 1.2549847737	 1.8712246256	 0.2163251955	 0.134687
H	-0.2498134616	 2.0890176591	-0.6933130638	 0.115698
H	-0.3007342251	 1.914629657	 1.0665921643	 0.117576
H	-0.9717973053	-0.2341271765	-0.1005408819	 0.101758
H	 0.5705387705	-0.2535689993	-0.9453307247	 0.130728
H	 0.2252982982	-1.6509851011	 2.9019705409	 0.135079
H	 0.112097555	 0.1204358617	 2.9568372749	 0.113498
H	-1.1389823536	-0.8334208208	 2.1219665685	 0.124172
H	 2.6034389555	-1.1215147191	 3.2695671901	 0.096662
H	 5.1170557342	-1.2538829754	 2.1947949078	 0.103191
H	 4.7369671389	-0.8498193309	-0.4993950732	 0.12468
