18
gdb 56352	4.7195	0.80481	0.73599	5.2831	81.18	-0.2555	-0.0389	0.2166	1523.1736	0.147433	-398.122636	-398.113246	-398.112302	-398.157627	34.103	
N	 0.5711953782	 1.2021221284	 0.5660996664	-0.553522
C	 0.2621682034	-0.0743812142	 0.137618111	 0.2548
N	 1.0340168687	-0.9721672236	-0.3326077554	-0.26944
C	 2.4611514045	-0.6953914698	-0.4608702039	-0.203065
C	 3.2182257558	-0.6838046575	 0.8624486832	 0.014869
C	 4.6936636289	-0.3951252852	 0.8712613076	-0.277079
C	 3.7376585568	 0.5966665762	 1.486910791	-0.270172
C	-1.1592485878	-0.3786561002	 0.1941176437	 0.274963
N	-2.2941759862	-0.5870025637	 0.2598811305	-0.320191
H	 1.5090190115	 1.342338466	 0.9087367722	 0.27489
H	-0.1444133603	 1.7032745297	 1.0687292294	 0.27054
H	 2.8750335095	-1.4863916894	-1.0944890688	 0.119792
H	 2.6323742379	 0.2587811855	-0.9866659685	 0.101601
H	 2.8788921611	-1.4465595509	 1.5571827342	 0.104486
H	 5.3299585771	-0.9759764255	 1.529208324	 0.121363
H	 5.1602577447	-0.1199104043	-0.0691801147	 0.119648
H	 3.6003977016	 1.5318751612	 0.9486442039	 0.113976
H	 3.7169669845	 0.6978856573	 2.5666290442	 0.122539
