15
gdb 19772	3.21787	2.95332	2.4574	1.3815	58.19	-0.2029	0.0717	0.2746	649.8422	0.122569	-399.765191	-399.759699	-399.758755	-399.79461	22.513	
C	-0.0243029925	 1.5131806346	-0.0992757624	-0.155685
N	 1.297381639	 2.0888746133	 0.2318200207	-0.316304
C	 2.2534545488	 1.097398002	 0.6700070231	-0.078433
C	 2.2467160588	-0.2885666055	 0.0361383348	 0.022348
O	 1.0867933218	-0.5280991991	-0.7380580019	-0.264018
C	 0.0278548627	-0.0057760973	 0.0589428805	 0.146918
O	 0.3584561918	-0.3078284495	 1.4068793596	-0.253469
C	 1.7513717583	-0.1000929221	 1.4488807067	 0.038739
H	-0.7977553922	 1.9079455247	 0.5733359596	 0.109309
H	-0.3125073519	 1.7606467599	-1.1263052979	 0.104679
H	 1.6729190138	 2.5719776945	-0.5750387877	 0.2281
H	 3.2099693667	 1.5096416692	 0.977167663	 0.098983
H	 3.1094422841	-0.8569936864	-0.2867475639	 0.106979
H	-0.9064077499	-0.5061375282	-0.203270367	 0.098534
H	 2.2145395109	-0.4708081801	 2.3534623028	 0.113319
