20
gdb 39319	2.87129	1.75507	1.31717	2.5061	78.3	-0.2356	0.0699	0.3054	1013.8215	0.174397	-403.114652	-403.107529	-403.106585	-403.146061	29.294	
C	-0.012883886	 1.5516816382	 0.1160578361	-0.240803
C	 1.5251654869	 1.5703811616	-0.11171641	-0.236753
C	 1.4345776795	 0.0993548058	-0.614095309	 0.000044
C	 2.4266762934	-0.9413452962	-0.1437061655	-0.060406
N	 2.866577653	-0.8583130864	 1.2651715568	-0.325454
C	 1.969635545	-1.9458903562	 0.8544790661	-0.039882
C	 0.5470917493	-1.8541839611	 1.3740505234	-0.085353
O	 0.0353012655	-0.5379646245	 1.3273261518	-0.254375
C	 0.0139305417	 0.0116753562	 0.0237786342	 0.116513
H	-0.3889922491	 1.9488213797	 1.0607565808	 0.110175
H	-0.5712810733	 1.999462233	-0.7104582322	 0.096058
H	 1.9220994978	 2.3115930102	-0.808935878	 0.088547
H	 2.0780302561	 1.6199422927	 0.8275708212	 0.130641
H	 1.3559390894	 0.0570423237	-1.704974177	 0.065429
H	 3.169369306	-1.2618297498	-0.8708903361	 0.078985
H	 3.8192393636	-1.2025257073	 1.3483599589	 0.22955
H	 2.3675747111	-2.9572535507	 0.7931551109	 0.082089
H	-0.0899797678	-2.545733298	 0.7940471742	 0.082051
H	 0.5028867812	-2.1565489081	 2.4256642461	 0.110802
H	-0.7646979033	-0.4825661428	-0.5776003428	 0.052142
