19
gdb 81811	2.20303	1.61631	1.16871	1.7319	81.17	-0.2533	0.0389	0.2922	1124.13	0.157157	-385.831385	-385.822129	-385.821184	-385.865029	35.219	
C	-0.0065274667	 1.5377042734	 0.0604242888	-0.501561
C	 0.0401443983	 0.0382370773	 0.0180803409	 0.377682
C	-0.8761871101	-0.8564476176	 0.7982633259	-0.352128
C	 0.6090708567	-0.973465419	 1.0235429597	-0.131679
C	 1.2832023649	-1.7607919512	-0.0996855961	 0.141069
O	 1.0632828225	-3.1349058266	-0.2357121011	-0.431773
C	 0.6405216273	-0.7656050806	-1.1628144523	-0.328218
C	-0.2794912373	-1.3580493118	-2.1126470949	 0.318359
C	-1.0512174702	-1.9155830984	-2.8502333167	-0.447254
H	 0.9641215792	 1.9776505419	-0.1962557557	 0.117449
H	-0.7468255379	 1.9304142357	-0.6467003265	 0.128446
H	-0.2820432056	 1.8933146977	 1.0585150923	 0.121397
H	-1.4190271126	-0.3709540615	 1.6032807773	 0.113403
H	-1.4406238107	-1.6436271762	 0.3048431315	 0.108777
H	 1.0498589893	-0.7880646994	 1.9963999922	 0.086518
H	 2.3676511887	-1.6273929925	-0.0785432886	 0.096097
H	 0.1642814142	-3.2668846972	-0.5595520833	 0.284081
H	 1.4194355922	-0.2032715121	-1.6861510623	 0.100514
H	-1.7265093522	-2.3758040621	-3.5285797207	 0.198822
