16
gdb 8628	2.10775	1.87763	1.57809	1.9341	72.27	-0.2576	0.035	0.2925	950.601	0.125861	-346.522311	-346.512706	-346.511762	-346.555988	34.63	
C	-0.0148527435	 1.508124365	 0.0165636496	-0.414164
C	-0.0008188473	-0.0445193537	-0.0044805336	-0.154314
C	 0.7514630921	-0.5442276248	 1.2555640413	-0.074186
O	 0.7698334091	-1.9530310845	 1.2463663684	-0.407889
C	-1.3836799526	-0.5437486944	 0.0102820934	 0.382717
C	-2.5291204602	-0.9030365782	 0.0399664798	-0.491888
C	 0.6924995984	-0.508369676	-1.2152264652	 0.382711
C	 1.280704362	-0.8381041526	-2.2088529246	-0.491889
H	 1.0085071869	 1.8929333035	 0.0064144964	 0.125604
H	-0.5393322715	 1.8894063619	-0.8609524768	 0.141802
H	-0.5276239819	 1.8667625672	 0.9131640574	 0.125608
H	 1.7668177641	-0.1204846867	 1.2312643465	 0.095034
H	 0.2293239135	-0.1464668892	 2.1388866681	 0.095029
H	 1.2380222021	-2.2552020805	 2.0297482496	 0.292098
H	-3.5347912029	-1.243546248	 0.0567356348	 0.196864
H	 1.7896687317	-1.1528205291	-3.0860704152	 0.196863
