19
gdb 115999	1.88733	1.54379	0.92855	2.7095	79.88	-0.2505	-0.0579	0.1926	1263.7328	0.159214	-423.051415	-423.042408	-423.041464	-423.085595	32.837	
O	 0.8869247475	-0.5355966059	-1.0224984851	-0.415972
C	 0.1686300538	-0.285646241	 0.1758076881	-0.081215
C	-1.3550459703	-0.4131557414	-0.0136933389	-0.123403
C	-1.7930285488	-1.8372604585	-0.4513010836	-0.232187
C	-2.312671291	-2.5322606944	 0.836249317	-0.2591
C	-2.5955430911	-1.3790348224	 1.7594985581	-0.147182
C	-2.0943670828	-0.2232731118	 1.2968597153	 0.239089
C	-2.2148230135	 1.0600442521	 1.9897010508	 0.068195
O	-1.7308344193	 2.0996896434	 1.5937373942	-0.278864
H	 0.7022321862	 0.187475836	-1.6306307427	 0.284068
H	 0.5163874331	-1.0392080154	 0.8919074806	 0.104243
H	 0.4024373602	 0.7035581548	 0.5904435842	 0.115964
H	-1.6578917258	 0.3479425492	-0.7435087382	 0.079447
H	-2.607516977	-1.767523426	-1.178295658	 0.104358
H	-0.9734179443	-2.3744520315	-0.9328220129	 0.1221
H	-3.1981341073	-3.1531637846	 0.659695784	 0.116306
H	-1.5643533842	-3.2004022602	 1.2858863621	 0.124002
H	-3.127416285	-1.484610491	 2.7005390309	 0.110035
H	-2.8053915403	 1.0256866886	 2.9326332941	 0.070116
