18
gdb 109570	1.96175	1.61729	1.18963	2.1738	68.84	-0.2329	-0.0439	0.189	1115.7353	0.147111	-476.198191	-476.18917	-476.188226	-476.231881	33.474	
C	-0.0117311682	 1.3684968861	 0.2386363022	-0.323295
N	-0.1159720979	-0.042930601	-0.1226865941	-0.300848
C	-1.4882972071	-0.5436788183	-0.1773571645	-0.175634
C	-1.4399601228	-2.059832451	-0.5793464502	 0.118843
O	-0.4075437119	-2.4654495372	-1.4300180178	-0.444513
C	-1.2620846546	-2.4446907155	 0.9324833828	-0.038486
O	 0.1051678976	-2.6304304239	 1.2517990698	-0.436771
C	-1.8182396167	-1.0273127179	 1.2549907143	 0.416491
O	-2.3470268929	-0.5315727725	 2.2059142629	-0.29784
H	 1.0401487126	 1.666556855	 0.2418114493	 0.1265
H	-0.5639838643	 2.0323186956	-0.4457025124	 0.110514
H	-0.4124090517	 1.5179281496	 1.2454219869	 0.149457
H	 0.3245414158	-0.2365077571	-1.0177148824	 0.239002
H	-2.2001500145	 0.1189080743	-0.6905057056	 0.071773
H	-2.4055651831	-2.3862194128	-0.9783758496	 0.097208
H	 0.2761930864	-2.8304026446	-0.8467924335	 0.290934
H	-1.8175209037	-3.3017713419	 1.3182204521	 0.109149
H	 0.5267317169	-1.767581927	 1.0948718999	 0.287517
