20
gdb 17273	4.95163	1.1656	1.0798	2.8185	75.62	-0.2312	0.0865	0.3177	1169.788	0.177471	-345.122558	-345.114062	-345.113118	-345.156217	31.292	
C	 0.1544220668	 1.3288416483	-0.5561278475	-0.414491
C	-0.1882157551	 0.1800858933	 0.3664016616	 0.034217
C	 0.7113102841	-0.9982995303	 0.502017318	-0.254352
N	 0.5332275209	-0.0676036787	 1.6173197819	-0.101181
C	 1.6497072415	 0.7960042785	 1.9924453548	-0.167602
C	 2.1834754858	 0.4327309703	 3.3695273618	 0.015338
C	 1.2683034968	 0.056743773	 4.4702611597	-0.227635
N	 2.1538414186	-0.9538579385	 3.8541977817	-0.322952
H	 1.2322830514	 1.4389621135	-0.6987867013	 0.122525
H	-0.2976578251	 1.1635848609	-1.5396534714	 0.124999
H	-0.2365221376	 2.2768345055	-0.1698694506	 0.125304
H	-1.2590634279	 0.0040902116	 0.464932899	 0.091709
H	 0.3100836265	-1.9991571404	 0.6411135218	 0.115376
H	 1.6588042616	-0.961889532	-0.0355358522	 0.11095
H	 2.4766978421	 0.7519013805	 1.2654592848	 0.091721
H	 1.303072163	 1.8373803935	 2.0159001519	 0.10866
H	 3.1009645093	 0.9610636826	 3.6241026036	 0.084242
H	 1.5118302596	 0.3181117214	 5.4962449421	 0.108329
H	 0.2092897786	 0.0060851933	 4.2363345358	 0.118709
H	 1.587100779	-1.5013416462	 3.2091438545	 0.236134
