16
gdb 43306	3.04275	1.76803	1.42074	2.0159	73.59	-0.2302	-0.0587	0.1715	918.2765	0.126493	-400.724176	-400.717616	-400.716672	-400.755078	26.437	
O	-0.0367636828	-0.0355206176	-0.0287806644	-0.330239
C	-0.0499218268	 1.1719601453	 0.0166357006	 0.377651
C	-1.2518657635	 2.0496583002	 0.1313786251	-0.178206
C	-0.9113371714	 3.3485166012	 0.1237323343	-0.068091
C	 0.5735907258	 3.5390393438	 0.0402149032	-0.021935
C	 1.1524030442	 2.1183810125	-0.0450674394	-0.170273
C	 1.7068511248	 2.5224288003	-1.425840652	-0.018399
C	 0.6767907356	 3.0300447906	-2.3456600343	-0.252215
N	 1.1947732601	 3.9487091384	-1.3097769795	-0.154634
H	-2.2537871445	 1.6413080663	 0.1898026082	 0.123023
H	-1.6078295279	 4.1800024349	 0.1560587609	 0.12299
H	 0.9744366436	 4.2045825177	 0.8061633613	 0.101595
H	 1.92596995	 1.8508149255	 0.6739196327	 0.106866
H	 2.7223976208	 2.3132308942	-1.7431445059	 0.106961
H	 1.0065651379	 3.321165808	-3.3379301642	 0.12966
H	-0.3459768459	 2.6696935089	-2.2991110966	 0.125246
