20
gdb 111510	2.82227	1.45156	1.21828	2.8773	74.64	-0.2349	0.0674	0.3023	1101.7661	0.172316	-440.257079	-440.248762	-440.247818	-440.289736	32.491	
C	-0.2673040305	 1.2608615908	-0.0505685909	-0.239229
O	 0.2177307543	-0.0602072686	 0.0761577461	-0.244591
C	 0.7378801887	-0.5972687064	-1.1117839241	 0.141558
C	 1.2506712065	-2.0004204472	-0.8652455527	-0.072233
N	 0.1544192533	-2.9992351737	-0.8335991722	-0.347842
C	 0.9667760678	-2.8280838069	-2.0614948831	-0.032167
C	 0.2623760517	-1.9695641409	-3.0969221501	-0.236858
C	-0.2982721557	-0.7743648401	-2.2808805884	 0.053849
O	-1.601830102	-1.0061033972	-1.7957861848	-0.429791
H	 0.5008573483	 1.9355116384	-0.4619983787	 0.094262
H	-1.1604775376	 1.3017140293	-0.6850392879	 0.131548
H	-0.5278134616	 1.6020128908	 0.9545138433	 0.122031
H	 1.576320022	 0.0251273827	-1.4762656486	 0.05812
H	 2.1184471081	-2.1561371667	-0.2339054265	 0.09136
H	 0.4598180646	-3.8233102648	-0.3238012483	 0.237297
H	 1.6259135277	-3.6350095907	-2.3646100209	 0.088353
H	 0.9887523232	-1.6295871116	-3.8448822913	 0.098957
H	-0.5484658531	-2.485927486	-3.6183933457	 0.114431
H	-0.3612668037	 0.1268327907	-2.8962375204	 0.078273
H	-1.5174712822	-1.7602003918	-1.1916084848	 0.292675
