16
gdb 4565	5.52214	1.45721	1.16126	1.2208	75.38	-0.2109	0.0022	0.2131	1006.0973	0.131721	-346.680854	-346.673486	-346.672541	-346.712888	27.93	
C	-0.0500809499	 1.5271910847	 0.027300433	-0.494324
C	-0.0082047595	 0.0184824544	 0.0052396382	 0.298372
C	 0.0202892915	-0.6844279106	-1.2052974183	-0.169532
C	 0.0780493152	-2.0708477511	-1.2430691244	-0.177938
C	 0.1076490565	-2.7965259839	-0.0507299777	 0.379153
O	 0.1619564457	-4.1575823127	-0.1385925749	-0.44469
C	 0.0772381603	-2.1177567182	 1.1660892641	-0.24886
C	 0.0191602048	-0.7258804448	 1.1846330128	-0.170517
H	 0.9206139704	 1.9627315257	-0.2403896167	 0.129265
H	-0.7835514281	 1.9196185091	-0.6850657192	 0.125534
H	-0.3138551376	 1.903376731	 1.0197607507	 0.120213
H	-0.0048597307	-0.1333292632	-2.1413014489	 0.088801
H	 0.0974687955	-2.6087167332	-2.1841466521	 0.100699
H	 0.1760251039	-4.5273851349	 0.7500873446	 0.294728
H	 0.0952177017	-2.6750099143	 2.0994908407	 0.080455
H	-0.0063107697	-0.212572638	 2.1415279381	 0.088641
