20
gdb 66094	2.50864	1.48337	1.31074	3.9456	81.74	-0.285	0.0423	0.3273	1086.1245	0.172542	-366.0379	-366.029594	-366.02865	-366.070365	32.742	
C	-0.0412560246	 1.5383405324	-0.0054543855	-0.430552
C	 0.021871542	 0.0001267074	-0.0019717858	 0.108796
C	 0.8200527118	-0.5804084906	-1.2136023314	-0.262669
C	 1.3687990233	-1.9418667686	-0.7372224491	-0.227641
C	 1.5628394226	-1.7802411881	 0.7643581091	-0.020906
C	 2.2484453222	-0.5241417453	 1.2419931922	-0.319547
C	 0.7409965769	-0.5968431228	 1.2188349361	-0.029344
C	-1.3491663744	-0.537828178	-0.0253422145	 0.265505
N	-2.42621635	-0.9581849633	-0.0438803035	-0.349844
H	 0.9715242469	 1.9460857933	 0.0555261877	 0.123149
H	-0.5135763649	 1.9112847818	-0.918832096	 0.131905
H	-0.6142334404	 1.910074762	 0.8483129256	 0.133333
H	 0.2001872622	-0.659226781	-2.10876815	 0.121604
H	 1.6353720733	 0.1100511808	-1.4483325826	 0.10937
H	 0.6329591369	-2.7322045735	-0.9218988209	 0.121474
H	 2.2860653886	-2.2194596331	-1.2667151006	 0.10393
H	 1.6357583439	-2.6724039157	 1.375550483	 0.090873
H	 2.7153471376	-0.553336444	 2.2201634881	 0.118249
H	 2.7722875987	 0.1033720895	 0.5282660537	 0.112206
H	 0.2043100674	-0.6004564132	 2.1603100644	 0.100108
