19
gdb 60816	2.83892	1.05017	0.85285	3.8677	72.9	-0.2637	-0.0411	0.2226	1365.3151	0.155842	-460.141681	-460.131843	-460.130898	-460.177303	35.016	
C	-0.1539985862	 1.6967207558	-0.221519979	-0.411629
C	-0.0173463803	 0.1733450525	-0.0708867609	-0.051769
C	-1.4092244246	-0.5224178463	 0.0094629125	 0.045673
O	-1.3264195984	-1.8979603672	-0.2217900593	-0.425927
C	-2.0626873141	-0.2638990718	 1.3543848153	 0.13373
O	-2.372229258	-1.1712971749	 2.0888091085	-0.258584
C	 0.778167282	-0.3978746989	-1.2306285533	 0.111121
C	 2.2449418948	-0.3109469054	-1.2629027289	-0.1894
O	 1.5814119459	-1.5443311939	-0.9862354305	-0.224804
H	 0.8316943983	 2.1689983628	-0.2502457346	 0.128525
H	-0.6732781801	 1.952771191	-1.1521116475	 0.124984
H	-0.7120490339	 2.1488944046	 0.6033267009	 0.120734
H	 0.5432564045	-0.0643040485	 0.841993121	 0.092038
H	-2.0553718798	-0.0535146665	-0.7562758039	 0.08948
H	-1.6252572611	-2.3254206234	 0.5961753822	 0.295685
H	-2.2360213681	 0.7921776487	 1.6394664027	 0.101016
H	 0.2488397211	-0.4198062916	-2.1856598368	 0.094687
H	 2.766352729	-0.2582713831	-2.2176523242	 0.114818
H	 2.776936569	 0.132598316	-0.421210324	 0.109622
