17
gdb 17803	4.30301	1.67233	1.49625	3.5631	69.78	-0.2286	0.0187	0.2473	897.1898	0.141997	-363.821771	-363.814336	-363.813391	-363.853886	27.614	
C	-0.1020297434	 1.4449793051	 0.1742723815	-0.482709
C	-0.042373626	-0.072016948	 0.0979960447	 0.35619
O	 0.9091963002	-0.7208555608	 0.4867619092	-0.35477
N	-1.1224920212	-0.6612866617	-0.5394174849	-0.094597
C	-2.5871527849	-0.4585191033	-0.2000009023	-0.035783
C	-2.8617852371	-1.7147991433	-1.0703933996	-0.21575
C	-1.6288441879	-2.0355054565	-0.1786210075	-0.010747
C	-2.4007812507	-1.4063665263	 1.0223725943	-0.221828
H	 0.9046665474	 1.8317646381	 0.3341657767	 0.146515
H	-0.5323399472	 1.8785038831	-0.7320372225	 0.135572
H	-0.7282965745	 1.7495457255	 1.0211685384	 0.136147
H	-3.0613879301	 0.5214367588	-0.2496344856	 0.094494
H	-3.777254853	-2.2663197514	-0.8529104606	 0.103624
H	-2.6670495309	-1.6085317338	-2.1376278888	 0.112735
H	-0.9730619273	-2.9025768577	-0.1923502881	 0.112076
H	-1.7859093512	-1.033069043	 1.8428394857	 0.11885
H	-3.2875855121	-1.9364148047	 1.3797888493	 0.099981
