20
gdb 114481	3.25228	1.2405	1.10103	1.7065	77.86	-0.2417	0.0202	0.2618	1187.9812	0.172656	-403.158297	-403.150145	-403.149201	-403.191739	30.935	
C	 0.1005831025	 1.4154985625	-0.228028183	-0.383873
C	 0.0175924595	-0.1022560741	-0.0373589191	-0.187593
C	-1.4195696582	-0.5985412239	 0.0852132876	 0.010451
C	-2.3422309181	-0.5316578169	-1.1803855895	-0.25131
C	-2.6592660434	-2.0472061243	-1.0263509866	-0.00901
N	-2.067027314	-2.9008803834	-2.0664586554	-0.262634
C	-0.9740914238	-3.3198208313	-1.5792838906	 0.113278
O	-0.6012841063	-2.966539911	-0.3201881476	-0.227786
C	-1.6718743804	-2.1277505476	 0.1766315473	 0.052299
H	 1.1389386954	 1.7448041581	-0.3310377333	 0.114798
H	-0.4389725614	 1.7340771224	-1.1265105133	 0.120505
H	-0.3352922726	 1.9477562353	 0.6248902324	 0.113158
H	 0.507348794	-0.6090714239	-0.8765863404	 0.103493
H	 0.5767992501	-0.3944388611	 0.8603912682	 0.10002
H	-1.8987133723	-0.1065372375	 0.9398413049	 0.073475
H	-3.2007217615	 0.1386268854	-1.0987834417	 0.103663
H	-1.8143813144	-0.3134222749	-2.1123051359	 0.109288
H	-3.7077362206	-2.3038452043	-0.8642896696	 0.082368
H	-0.2668261587	-3.9688637223	-2.084127863	 0.140309
H	-1.9840201659	-2.5281570173	 1.1429497787	 0.0851
