18
gdb 102878	2.46634	0.91078	0.68267	3.8667	77.21	-0.2349	0.0176	0.2525	1598.5097	0.145976	-435.268452	-435.257967	-435.257023	-435.30573	35.716	
C	 0.0405804513	 1.4445519408	-0.1637908083	-0.325762
N	 0.0395506573	-0.0073869058	-0.1172874928	-0.297999
C	-1.066649326	-0.6219619064	 0.0419503019	 0.33378
C	-2.4344304249	 0.0289996199	 0.244353416	-0.16687
O	-3.5043443539	-0.895135101	 0.3469865969	-0.415096
N	-1.1156006066	-1.9967933858	 0.0178551145	-0.337271
C	 0.1187484793	-2.7523127058	 0.0035851686	-0.259795
C	-0.1109905289	-4.1205792719	-0.4653753342	 0.250957
N	-0.2944270519	-5.2047410822	-0.8190036478	-0.301427
H	 1.0726440978	 1.7963686181	-0.2408010281	 0.126055
H	-0.5039389042	 1.8435054822	-1.0334300781	 0.112346
H	-0.3956051499	 1.9070412265	 0.7346312621	 0.110592
H	-2.4188945215	 0.5907024551	 1.1849370437	 0.146839
H	-2.6024940773	 0.76149247	-0.5566837504	 0.126773
H	-3.7127630667	-1.2109859831	-0.5384786607	 0.29795
H	-1.9288581362	-2.4091842566	 0.4502264257	 0.261073
H	 0.8168401652	-2.2371566021	-0.6634412925	 0.185837
H	 0.609597057	-2.790591172	 0.9878497636	 0.152019
