15
gdb 128704	4.8123	1.09575	0.89757	3.1695	74.46	-0.231	-0.0677	0.1633	1236.1877	0.112511	-453.923631	-453.915704	-453.914759	-453.95637	29.203	
C	 0.024275486	 1.3846237405	 0.2293562299	-0.238601
O	-0.0297500157	-0.0442641367	 0.1713296249	-0.256447
C	-1.2279518265	-0.5946505506	-0.0759607481	 0.446251
N	-2.2561032629	 0.1623942186	-0.2471169001	-0.190878
O	-3.4764793046	-0.486289343	-0.5019446873	-0.297914
C	-3.6084131102	-1.8598724992	-0.5730138292	 0.407497
N	-4.7387368122	-2.392717978	-0.8067533925	-0.529522
C	-2.4047601046	-2.6491013117	-0.3694059156	-0.112132
C	-1.2372160235	-2.0422651122	-0.1260775868	-0.166299
H	 1.066179986	 1.6285993587	 0.4365484723	 0.136551
H	-0.2929540769	 1.8218958145	-0.7215605648	 0.146341
H	-0.6261722153	 1.7636616324	 1.0226610018	 0.146341
H	-5.4581924622	-1.6765224164	-0.9202910414	 0.228385
H	-2.5206107749	-3.7238397099	-0.4274301239	 0.144396
H	-0.3057017723	-2.5707451169	 0.0342408708	 0.136033
