20
gdb 46356	3.36472	1.15397	0.90176	2.6128	80.76	-0.2158	-0.0197	0.196	1309.6914	0.170629	-403.126439	-403.117805	-403.116861	-403.160624	31.951	
O	 0.1756549712	 0.034459648	-0.093705413	-0.29884
C	 0.0159266719	 1.2153189274	 0.0158061931	 0.398355
C	-1.1898186159	 2.114900613	 0.327738644	-0.341726
C	-0.169239473	 3.2254253019	 0.7249334746	-0.253117
C	 0.9895914476	 2.4126722329	 0.064372884	-0.058695
N	 2.204497228	 2.2190017749	 0.7999584657	-0.075706
C	 3.2289989261	 3.2863724275	 0.793974425	-0.160575
C	 4.3205141686	 2.1897275989	 0.7651399455	-0.231161
C	 3.1947596098	 1.2389588721	 0.2924566813	-0.149468
H	-1.7658242345	 2.349708083	-0.5732971218	 0.132361
H	-1.8769830079	 1.7448609791	 1.0918806115	 0.132739
H	-0.3516773442	 4.2223932246	 0.3233180463	 0.106369
H	-0.0273562922	 3.2840698486	 1.8056371165	 0.122132
H	 1.1621326174	 2.7688870896	-0.9742814358	 0.069098
H	 3.2187864199	 3.883540658	-0.1338022837	 0.081922
H	 3.193046982	 3.9672064694	 1.6505803753	 0.10175
H	 5.1627818264	 2.3421529801	 0.090054372	 0.104846
H	 4.6916770572	 1.940844992	 1.7608639136	 0.114457
H	 3.1213011609	 0.2434325898	 0.7364661807	 0.117061
H	 3.1736908706	 1.1370376193	-0.8042884248	 0.088197
