21
gdb 118016	3.4349	0.80631	0.68613	0.4403	82.03	-0.2522	0.0297	0.2819	1660.1986	0.178279	-424.176709	-424.165463	-424.164519	-424.213466	39.778	
C	-0.0007389519	 1.3965904406	 0.0226648988	-0.22805
O	-0.0319587577	-0.0092562607	-0.0051409354	-0.237487
C	 0.6481711583	-0.5507761728	-1.118397513	-0.062088
C	 0.5528351978	-2.0763262536	-1.049127052	-0.013621
C	-0.9039202453	-2.5475702034	-1.1181780048	-0.4055
C	 1.4163998838	-2.704115641	-2.1708650822	-0.052776
O	 2.7590394754	-2.2183807808	-2.160066121	-0.421571
C	 1.3956273206	-4.1693348299	-2.121188817	 0.29128
C	 1.4246945313	-5.3686672055	-2.0400971244	-0.437138
H	 1.0302607757	 1.7822871888	 0.0681752459	 0.103609
H	-0.4890608964	 1.8349147587	-0.8625217829	 0.10311
H	-0.5384388339	 1.7194055263	 0.9176973569	 0.125175
H	 0.1939687237	-0.1880033535	-2.0591505324	 0.078152
H	 1.7008072253	-0.2352883037	-1.121359373	 0.101672
H	 0.9824818689	-2.3892830578	-0.0876768573	 0.081742
H	-1.3495437291	-2.2944161194	-2.088230032	 0.109311
H	-0.9794131476	-3.6292058371	-0.9844488111	 0.125884
H	-1.4897174064	-2.0527881692	-0.3411978059	 0.136402
H	 1.0131743954	-2.3766551032	-3.1385732399	 0.117019
H	 3.2150226992	-2.6497554033	-1.428608376	 0.284957
H	 1.4436739129	-6.4294855398	-1.9893501712	 0.199917
