15
gdb 12323	3.19516	2.27184	1.38888	1.9648	64.24	-0.2285	-0.0271	0.2014	855.3716	0.122164	-396.034244	-396.027188	-396.026244	-396.065258	27.144	
N	 0.0258613686	 1.3212531568	-0.0390718207	-0.539956
C	-0.0668658995	-0.0388589419	-0.0371355954	 0.272621
N	-1.1851574524	-0.6615407735	-0.0253886293	-0.310616
C	-1.1353689249	-2.1156173304	-0.0505016779	-0.145215
C	 0.0694569784	-2.679386809	-0.8023241354	-0.177879
N	 1.2775888789	-2.0278345196	-0.3072186806	-0.333616
C	 1.3075839828	-0.6988484796	-0.0432011262	 0.386168
O	 2.3218003554	-0.0673642436	 0.2067914887	-0.387795
H	 0.9269111157	 1.6895247355	 0.2261485132	 0.271788
H	-0.8000092804	 1.8384577813	 0.2143175903	 0.257186
H	-1.134493938	-2.4972508128	 0.9819796548	 0.109836
H	-2.0525037727	-2.4892136988	-0.5184397822	 0.111023
H	 0.1567665023	-3.757742595	-0.6406251346	 0.116608
H	-0.0481780169	-2.5103930236	-1.8828685343	 0.116006
H	 2.1775825827	-2.4729961458	-0.4129598703	 0.253841
