19
gdb 83155	3.20408	1.2871	1.12568	2.4529	75.24	-0.2282	-0.0162	0.212	1139.3413	0.159437	-423.033282	-423.025042	-423.024098	-423.066306	31.574	
C	-0.6286064798	 1.2208337333	 0.3557294895	-0.41051
C	-0.0742661837	-0.151404113	 0.0473864052	-0.049256
C	 0.7319851051	-0.4642733778	-1.2056695734	-0.098072
C	 1.2144112314	 0.6245046743	-2.159360552	-0.333926
C	 2.7220232823	 0.8085700304	-2.0342055925	 0.363758
O	 3.4584955481	 1.0073998043	-2.9694626841	-0.303828
C	 3.2665223571	 0.7114897936	-0.6054092686	-0.173691
O	 2.2438248343	 0.6383558198	 0.3744197436	-0.2463
C	 1.394071985	-0.4529764409	 0.1543362514	 0.075726
H	 0.125373709	 1.9983632231	 0.2205390511	 0.133244
H	-1.4910547332	 1.4535960533	-0.2781383338	 0.11768
H	-0.9583948364	 1.2695680119	 1.3985123501	 0.123182
H	-0.716016564	-0.9705924518	 0.3614295297	 0.090548
H	 0.5578705061	-1.4313632651	-1.6657071096	 0.097552
H	 0.9828303755	 0.3935997129	-3.201006512	 0.129825
H	 0.7430125103	 1.5893559024	-1.9348970048	 0.133409
H	 3.9465371721	-0.1533542247	-0.5501272535	 0.121983
H	 3.8562045164	 1.6076911037	-0.3917016127	 0.141172
H	 1.7303085143	-1.38191493	 0.6146765965	 0.087504
