17
gdb 41981	2.58406	2.16644	1.6954	1.8234	65.59	-0.2218	0.0717	0.2935	851.5386	0.139226	-458.930238	-458.923895	-458.922951	-458.960802	26.015	
C	 0.0257163901	 1.5717084518	 0.0045270418	-0.113507
O	 1.3740852361	 1.9962006904	-0.2249587266	-0.260182
C	 2.0235163348	 0.994552231	-0.9712194962	 0.033742
C	 2.5545851489	-0.2234361778	-0.2474588634	 0.101459
O	 2.678480368	-0.3675358031	 1.132664391	-0.260765
C	 1.5413042377	-0.0315848573	 1.9075160475	 0.016433
O	 0.333910872	-0.4836030408	 1.3576355666	-0.255389
C	 0.0724722093	 0.0368353239	 0.0518058187	 0.065373
C	 1.2069347497	-0.2829182359	-0.9265452284	-0.177063
H	-0.3281016337	 2.0184620816	 0.9376962736	 0.121748
H	-0.6230188971	 1.9035125828	-0.8196488064	 0.10273
H	 2.5182561071	 1.3544035407	-1.86879557	 0.099481
H	 3.3760706989	-0.7404974054	-0.7338885937	 0.108574
H	 1.6619132538	-0.5543323856	 2.8590988744	 0.117644
H	 1.51904678	 1.0538199304	 2.0742403758	 0.107214
H	-0.8750812235	-0.4145432749	-0.2463551401	 0.096041
H	 1.020546168	-0.9254216618	-1.7779480846	 0.096466
