16
gdb 18257	4.37552	1.6276	1.34404	0.7804	64.68	-0.2445	0.0014	0.2459	910.5062	0.130953	-383.714844	-383.707685	-383.706741	-383.746325	27.016	
O	-0.0380093357	 1.4378913374	-0.0473120294	-0.424111
C	 0.0382835554	 0.0225620253	 0.0540003472	-0.081379
C	-1.3894676092	-0.5235432553	-0.009054322	-0.062523
C	-2.0974382106	-0.2221263692	-1.3194928416	-0.072767
C	-2.5673815834	-1.3238167966	-1.9101990801	-0.094952
C	-2.1981418521	-2.5313677071	-1.1119080061	-0.000026
O	-0.7650427975	-2.7217827991	-0.9957630859	-0.259509
C	-1.4539641893	-2.0490999605	 0.0629015736	 0.008515
H	 0.8569855826	 1.7829504046	-0.1124797726	 0.288798
H	 0.6215134522	-0.4150366636	-0.7671387954	 0.109763
H	 0.5069310492	-0.2833133592	 1.0030621959	 0.086062
H	-1.9470869732	-0.0891056262	 0.8323576374	 0.092616
H	-2.1501882672	 0.7859072649	-1.7115294141	 0.116129
H	-3.1058020376	-1.3679543527	-2.8487947035	 0.101425
H	-2.7789168431	-3.4484206413	-1.1261026993	 0.097396
H	-1.4472473406	-2.5610754312	 1.021741906	 0.094562
