17
gdb 58156	3.55793	0.74233	0.63425	0.5841	87.55	-0.2444	-0.0237	0.2207	1714.7665	0.131514	-421.763219	-421.752663	-421.751719	-421.798992	37.819	
C	-0.0955189813	 1.5604761688	-0.0265820811	-0.41114
C	-0.0498654428	 0.0358604223	-0.0396522541	 0.127217
O	 0.5059254352	-0.478469856	-1.2371537628	-0.417911
C	 0.7139072708	-0.5155269698	 1.197863933	-0.121024
O	 0.156330967	-0.028703961	 2.4157917894	-0.412347
C	 0.7812905255	-1.9746564509	 1.1799801608	 0.386311
C	 0.7836749425	-3.1849917949	 1.2061204051	-0.223339
C	 0.7913773513	-4.5450855803	 1.2317734663	 0.283363
C	 0.7967755544	-5.7523273304	 1.2570722925	-0.550885
H	 0.9183716415	 1.976521862	-0.0948093457	 0.10657
H	-0.6731721998	 1.925460495	-0.8796178831	 0.124708
H	-0.5440542684	 1.9283113986	 0.8985332712	 0.138041
H	-1.0694953775	-0.36718419	-0.0031324686	 0.093257
H	 1.354360967	-0.0449105995	-1.3831768463	 0.281588
H	 1.7345151959	-0.1072163077	 1.1672110552	 0.111396
H	-0.6174317355	-0.567134491	 2.6166772127	 0.290709
H	 0.8031244542	-6.8138588855	 1.2763313854	 0.193485
