20
gdb 68999	2.95064	1.23565	1.10294	2.5015	79.75	-0.2475	0.0758	0.3234	1199.4696	0.170554	-403.090262	-403.08161	-403.080666	-403.123869	32.905	
C	-0.2422709764	 1.5709111846	 0.360435052	-0.480134
C	-0.073861532	 0.0928461864	 0.1704159541	 0.278589
C	-1.2127510561	-0.9370373868	 0.0607263807	-0.283587
C	-0.2942912309	-1.9977408257	 0.7529878589	-0.304742
C	 0.8121212211	-0.9363437882	 0.8437444799	 0.316257
N	 1.1262895326	-0.4136977815	-0.4887003389	-0.401992
C	 1.8446223123	-0.8170312514	 1.9015599917	-0.029567
C	 1.6474818949	-1.3060573948	 3.2726097016	-0.188273
O	 2.4469086931	-2.0433010752	 2.3488888192	-0.235328
H	 0.7213347139	 2.0496584127	 0.5513943552	 0.131314
H	-0.6698234999	 2.028645691	-0.539927438	 0.122882
H	-0.9157521943	 1.7881735678	 1.1963121492	 0.116348
H	-2.0844043681	-0.6835814382	 0.6697436743	 0.10578
H	-1.5523091122	-1.1551526872	-0.957867389	 0.096211
H	-0.6873335179	-2.3154103686	 1.7210699832	 0.108639
H	-0.0331905348	-2.8906682604	 0.1767112489	 0.105036
H	 0.9310098925	-1.0825607638	-1.2327476758	 0.22165
H	 2.5534918572	-0.0054040147	 1.7415308776	 0.096973
H	 2.189087759	-0.8329167269	 4.0911315345	 0.114128
H	 0.7059559558	-1.7746739791	 3.5551254805	 0.109815
