19
gdb 108592	2.5602	1.46013	1.20781	1.4314	70.71	-0.2296	0.0731	0.3027	1106.0863	0.158666	-460.125137	-460.116472	-460.115527	-460.158341	32.698	
C	 0.0518909287	 1.3274777593	-0.2993763852	-0.256026
O	-0.0256757852	 0.0145329383	 0.2317310389	-0.286596
C	-1.2960955586	-0.5392724052	 0.1577095177	 0.352814
C	-2.3759623807	-0.1310939692	 1.1673598265	-0.315988
C	-2.8248913601	-1.4895262015	 1.7388970098	-0.076479
O	-2.5641992556	-2.4621716696	 0.7065278917	-0.276746
C	-1.4348010721	-2.0274373197	-0.012133153	-0.065471
C	-1.791657374	-1.1123400408	-1.1649372121	 0.030574
O	-3.1239460476	-1.0038994153	-1.5477855583	-0.428445
H	 1.0998191608	 1.6302760492	-0.2441992557	 0.128271
H	-0.2810830845	 1.3591570127	-1.3456067056	 0.11691
H	-0.5543739608	 2.0379674817	 0.2800744877	 0.112039
H	-1.9471469398	 0.5159414668	 1.9359814139	 0.113764
H	-3.2052460947	 0.3907670723	 0.68171879	 0.121562
H	-2.2439148689	-1.7474034986	 2.6349573701	 0.108224
H	-3.8890071697	-1.5479592822	 1.9809493475	 0.112629
H	-0.5930625948	-2.7115533567	-0.0435132417	 0.109292
H	-1.0904663658	-1.0692736035	-1.9949334805	 0.104506
H	-3.5964816367	-1.6842558683	-1.0466248918	 0.295166
