16
gdb 71922	2.53436	2.13709	1.50068	3.6415	68.58	-0.2334	-0.0225	0.211	899.7331	0.124348	-437.841286	-437.83413	-437.833185	-437.872667	27.839	
C	-0.0813000186	 1.5472144041	 0.0537468335	-0.509601
C	 0.1165094744	 0.0644755823	 0.0875913864	 0.292769
O	-1.1444243548	-0.6981718205	 0.1132789244	-0.330147
C	-0.6031252303	-1.7010430089	 1.0060160061	 0.087767
C	 0.2377716125	-2.745009701	 0.2356176778	-0.203131
N	 1.355889251	-1.7257047439	 0.1006767273	-0.198198
C	 0.6905712516	-0.880312352	 1.1751323877	-0.095509
C	 0.9863875562	-0.7427854048	-0.9068790378	 0.386985
O	 1.2259663399	-0.709691471	-2.0736191143	-0.310305
H	 0.8830944253	 2.0628593699	 0.088011293	 0.135187
H	-0.5858394404	 1.8286992111	-0.8757999185	 0.152903
H	-0.694482489	 1.8778244057	 0.8965918852	 0.132558
H	-1.3262067624	-2.0058664831	 1.7640751914	 0.094965
H	 0.5667561752	-3.5792672899	 0.8624701073	 0.124084
H	-0.1555136374	-3.1165719576	-0.7135655964	 0.139607
H	 1.2445412068	-0.6214203705	 2.0729554368	 0.100065
