14
gdb 133056	4.99489	0.99675	0.83526	2.9916	67.01	-0.2592	-0.054	0.2052	1255.9082	0.101156	-478.012436	-478.004761	-478.003817	-478.045427	27.677	
O	-0.0050695818	 1.4262818548	 0.0072933224	-0.415715
C	-0.0043226698	 0.0123641828	 0.0021776011	-0.151978
C	-1.4279930168	-0.4845747499	 0.0128315391	 0.283909
C	-2.5257537273	 0.3732293834	 0.0240055444	-0.054513
N	-3.7827972388	-0.0902645414	 0.0331595505	-0.290922
C	-3.9134964744	-1.393103931	 0.0309516897	 0.310685
F	-5.1480827559	-1.8825497572	 0.0400046646	-0.065592
C	-2.8334038515	-2.2777288122	 0.0199294879	-0.143766
N	-1.5905800252	-1.8146980671	 0.0108778233	-0.279876
H	 0.906313581	 1.7302725997	 0.0006376834	 0.297777
H	 0.5002158625	-0.3961509918	-0.8875073272	 0.116244
H	 0.5156826347	-0.402649179	 0.8798397568	 0.116263
H	-2.3900013148	 1.4476635993	 0.0255733843	 0.14615
H	-2.9901161819	-3.3521581005	 0.0186150397	 0.131333
