18
gdb 72584	2.17348	1.66771	1.48472	3.4496	71.52	-0.2394	0.0094	0.2488	1016.601	0.147119	-439.103295	-439.094535	-439.09359	-439.136434	32.887	
C	 0.0974820898	 1.592872323	-0.1118512367	-0.473993
C	 0.060031018	 0.1016679124	 0.0419030789	 0.424135
C	 0.5842604351	-0.8613814344	-1.0435428418	-0.271478
C	 1.2702046636	-1.7206995504	 0.0615253044	-0.279828
C	 0.7770774422	-0.7354544721	 1.1651583064	 0.086017
N	 1.7608670018	-0.2566028853	 2.0852557753	-0.598511
C	-0.6582362043	-1.0526741535	 1.6018646972	 0.397042
O	-1.2060462514	-1.6083469538	 2.5016910196	-0.340625
O	-1.2373536355	-0.3872992135	 0.5471284819	-0.299101
H	 1.1188151949	 1.919411699	-0.3287011829	 0.133265
H	-0.551327913	 1.918351987	-0.9319568486	 0.133845
H	-0.23491818	 2.0874530793	 0.8055334273	 0.129066
H	-0.2029607169	-1.3473884839	-1.6220895419	 0.121078
H	 1.2963732777	-0.3966544811	-1.7289488707	 0.112487
H	 0.941634126	-2.7560734392	 0.1679542205	 0.122325
H	 2.3603159611	-1.6998993136	-0.0074377429	 0.118427
H	 1.3372317681	 0.1202548853	 2.926940476	 0.244075
H	 2.3804198427	-1.0069161452	 2.3723418781	 0.241774
