13
gdb 129113	5.0456	1.33887	1.06507	2.198	65.63	-0.2406	-0.0156	0.2249	1024.61	0.091225	-452.736172	-452.729788	-452.728843	-452.767135	24.583	
N	-0.0086641806	 1.233482633	 0.0076335015	-0.500499
C	-0.0372154253	-0.0154149193	 0.0006693166	 0.407696
C	-1.2866168075	-0.9190715262	 0.0027621906	-0.45776
C	-0.6500957921	-2.2757911876	-0.0084501287	 0.075419
C	 0.6870319397	-2.0839670379	-0.0149914844	 0.514816
O	 1.4039181536	-3.1826524856	-0.0252460338	-0.234739
N	 0.4518705357	-4.2613604998	-0.0263414317	-0.151544
C	-0.735888353	-3.6864899056	-0.0158767229	-0.112361
O	 1.1448661231	-0.819316787	-0.0104553912	-0.254842
H	 0.9437215541	 1.598989698	 0.0043183111	 0.247533
H	-1.8912924427	-0.6980112132	 0.8881754257	 0.161198
H	-1.9013504174	-0.6881672276	-0.8731608189	 0.161195
H	-1.6016787377	-4.3343326312	-0.0146010341	 0.143889
