18
gdb 94424	2.55072	1.50283	1.19684	1.5078	73.04	-0.2244	-0.0259	0.1985	1081.2668	0.147485	-439.064175	-439.055729	-439.054785	-439.09756	31.792	
O	 0.2040754747	 1.3143637495	-0.2048635002	-0.422362
C	 0.0737379474	-0.063547475	 0.0183618172	 0.087382
C	 0.1787664686	-0.5337099512	 1.4898650522	-0.20613
N	-1.3050027313	-0.5797227675	 1.5542038426	-0.378569
C	-1.4090163517	-0.5890821291	 0.0938098817	 0.218657
C	-2.5197968845	 0.1109556632	-0.7337714605	-0.320355
C	-2.5194178906	-1.0770392994	-1.7450268838	-0.34155
C	-1.7074847133	-1.8664661792	-0.7026110556	 0.332367
O	-1.5235397742	-3.0303297695	-0.4785930808	-0.312055
H	-0.3188741761	 1.7740593223	 0.4627766081	 0.293646
H	 0.7255044219	-0.5555180702	-0.7045099565	 0.102766
H	 0.6706612156	-1.5094824276	 1.580122697	 0.116817
H	 0.6440823754	 0.1726951274	 2.186351837	 0.102071
H	-1.6970626586	-1.3983672772	 2.009975223	 0.228759
H	-3.4561461853	 0.1900999071	-0.1767610556	 0.116597
H	-2.2415379098	 1.0898886938	-1.127589505	 0.115936
H	-3.4790818836	-1.5156020008	-2.0265822017	 0.130511
H	-1.9438043846	-0.8768629167	-2.653914289	 0.135512
