15
gdb 11015	4.31808	1.77809	1.50884	3.9447	61.18	-0.2666	-0.0058	0.2609	846.6625	0.120042	-399.820875	-399.813997	-399.813053	-399.851817	25.935	
C	 0.0008083436	 1.5139971017	-0.0528527649	-0.474452
C	-0.0236192528	 0.0142922883	 0.0711965376	 0.311865
C	-1.3022482022	-0.7453681872	-0.2581863208	-0.147447
O	-1.2322975851	-1.9955659592	 0.4434803694	-0.235734
C	-0.2513097291	-1.9656157632	 1.4054522313	 0.45364
O	-0.16893673	-2.7969716351	 2.2602158057	-0.336282
C	 0.6276273585	-0.7775146315	 1.1546126719	-0.231415
N	 1.2105208144	-0.7131120205	-0.2050166072	-0.359894
H	 0.9823031076	 1.8991917673	 0.2313906864	 0.144499
H	-0.1930473557	 1.8206454112	-1.0868313081	 0.130761
H	-0.7590945367	 1.9744330494	 0.5864961161	 0.127738
H	-2.1886262009	-0.1976574508	 0.0825640861	 0.125123
H	-1.4112218163	-0.9574995396	-1.327282051	 0.126055
H	 1.2238160987	-0.3817856172	 1.9671210988	 0.120896
H	 1.0381245461	-1.5797802134	-0.7128650912	 0.244646
