21
gdb 77079	2.44932	1.30383	1.05466	3.4263	83.18	-0.2451	0.0191	0.2642	1239.7624	0.181503	-383.27744	-383.26762	-383.266676	-383.311636	36.983	
C	-0.2284894402	 1.4132225898	-0.124698476	-0.425195
C	-0.0240714989	-0.0857587155	 0.0436228229	-0.04108
C	 1.1765998648	-0.6635543343	-0.7782976326	-0.113205
N	 1.9495387947	-0.8040364535	 0.4759228007	-0.347141
C	 0.7311301151	-0.604119411	 1.3222933419	 0.324767
C	 0.9745112528	 0.3800440176	 2.4613463343	-0.427764
C	 0.1308593474	-1.9101536051	 1.8515322387	-0.450065
C	 0.8904486204	-1.9090166197	-1.4930546636	 0.273778
N	 0.6815012912	-2.9058700708	-2.0421584791	-0.339719
H	 0.7110500606	 1.9653474892	-0.0280314383	 0.132265
H	-0.6448899178	 1.6317238408	-1.1136872098	 0.124578
H	-0.9275647299	 1.8016344318	 0.6225056995	 0.124932
H	-0.9633886882	-0.6134386615	-0.1335998613	 0.094875
H	 1.6304145762	 0.0398884291	-1.4863041	 0.116911
H	 2.4245748294	-1.6937721312	 0.5922833839	 0.225864
H	 1.440602895	 1.3000458133	 2.1032485409	 0.120908
H	 0.0392707569	 0.6336771197	 2.972471873	 0.113557
H	 1.6474237799	-0.0658644282	 3.2021250691	 0.116853
H	 0.8064692054	-2.3776174844	 2.5773233203	 0.116671
H	-0.8219878856	-1.723430464	 2.359290563	 0.119972
H	-0.0506931991	-2.6264780722	 1.0445368926	 0.138238
