16
gdb 70130	2.42795	2.03129	1.28327	2.4644	69.62	-0.2614	-0.0204	0.241	968.5829	0.124961	-437.924266	-437.916712	-437.915768	-437.956158	28.968	
C	 0.0671167952	 1.5021236608	 0.0005877899	-0.461431
C	 0.051499024	-0.0107147015	-0.0180019159	 0.123393
C	-0.845184917	-0.7491799624	 0.9656283184	-0.325122
C	 0.6402149679	-0.8258005422	 1.1481158882	-0.025006
N	 1.2897180114	-2.0631108225	 0.883096936	-0.233875
C	 1.2118801513	-2.5287982725	-0.2850562539	 0.116147
O	 0.6343138509	-1.9490382635	-1.3883721441	-0.220561
C	 0.2327154352	-0.6173849237	-1.3576697121	 0.408639
O	 0.0798279334	-0.052241283	-2.4017159732	-0.314185
H	 0.9951521386	 1.892797845	-0.4263737072	 0.137106
H	-0.7637282267	 1.9038639261	-0.5855531446	 0.144376
H	-0.0224545878	 1.8711356307	 1.0263902638	 0.116492
H	-1.412289231	-0.1213915258	 1.6433742019	 0.134786
H	-1.3561205792	-1.6480727705	 0.6394891656	 0.139909
H	 1.078378183	-0.2632000439	 1.9653850426	 0.113545
H	 1.635780911	-3.4917355411	-0.5534853553	 0.145788
