20
gdb 75187	3.94686	0.8835	0.80947	3.9014	83.51	-0.2402	0.0206	0.2608	1469.6005	0.171349	-403.198294	-403.189124	-403.18818	-403.233406	33.598	
C	-0.3896607593	 1.3064742178	 0.4102828609	-0.494798
C	-0.0248798729	-0.0996324576	 0.0539302785	 0.331876
C	-0.3145105944	-0.7566605144	-1.0730106481	-0.171689
C	 0.2771696818	-2.1446660547	-1.1017547703	-0.265976
C	 0.6721057525	-2.3898885009	 0.3813859896	 0.026313
C	 0.8154362065	-0.9629622084	 0.9746804787	-0.308177
N	-0.3610172729	-3.1472424359	 1.0768486594	-0.275853
C	-0.1306611652	-4.3233517636	 1.7174813043	 0.151624
O	 0.9423827521	-4.8833998159	 1.8020822706	-0.325989
H	 0.5074210618	 1.917443291	 0.5743213457	 0.128565
H	-0.984179146	 1.7823153163	-0.3743390828	 0.124271
H	-0.9629862711	 1.3447689494	 1.3454098718	 0.124091
H	-0.8706928046	-0.3382837224	-1.9054572589	 0.08651
H	-0.4102933697	-2.9170794963	-1.4632178525	 0.105411
H	 1.1601851546	-2.1842943367	-1.7546841454	 0.113802
H	 1.5805708996	-2.9821551173	 0.4854721521	 0.118452
H	 1.8636001835	-0.6323609541	 0.9607180021	 0.112534
H	 0.4940994213	-0.9296404884	 2.0219317707	 0.104067
H	-1.302025705	-2.7839402181	 1.0707137059	 0.245249
H	-1.0585833925	-4.7287153999	 2.1693882978	 0.069718
