22
gdb 15195	8.33458	0.609	0.59512	1.3879	79.36	-0.2614	0.0813	0.3427	1894.2343	0.199491	-350.190824	-350.181076	-350.180131	-350.226369	34.7	
O	-0.0524586211	 1.4249438438	 0.0582256811	-0.421845
C	 0.0027799726	 0.0094782947	 0.1629214506	-0.074116
C	-1.3971832745	-0.537559278	-0.0806513306	-0.16491
C	-1.4682329926	-2.0644134363	 0.0068495932	-0.175404
C	-2.8772854284	-2.6177906527	-0.2442837201	-0.20441
C	-2.9514928008	-4.1271223741	-0.1514388903	 0.036202
C	-3.1385091959	-4.8021185119	 1.1852685842	-0.254433
C	-4.2528934193	-4.8168038561	 0.1662793933	-0.276878
H	 0.8302074582	 1.7725338152	 0.2147569458	 0.283993
H	 0.7021147179	-0.4173316551	-0.5752569202	 0.081715
H	 0.3554024452	-0.3024231668	 1.1601455494	 0.081952
H	-2.0778090975	-0.0849311308	 0.6513092536	 0.102617
H	-1.734383627	-0.1983063133	-1.0681504138	 0.103053
H	-0.7732718581	-2.5073075356	-0.7203645055	 0.090962
H	-1.1238107316	-2.396685824	 0.995376045	 0.096497
H	-3.5756224682	-2.1774154729	 0.4806374814	 0.090214
H	-3.2233268403	-2.2912975603	-1.2348747059	 0.094909
H	-2.302719629	-4.6482500428	-0.8523085273	 0.077567
H	-2.6077714923	-5.7269815062	 1.3828361099	 0.107932
H	-3.2614372559	-4.1679638733	 2.0577926708	 0.107449
H	-5.1213618538	-4.194559769	 0.3575745495	 0.108554
H	-4.4808531874	-5.7513023545	-0.3346532341	 0.10838
