15
gdb 8258	5.26636	1.1083	0.98354	3.9577	63.32	-0.2559	-0.0387	0.2172	1131.7391	0.117546	-399.828638	-399.820629	-399.819685	-399.862822	27.743	
O	 0.1313114109	-0.1611694276	-0.426949257	-0.229323
C	 0.0401589735	 1.0136817207	-0.1821470337	 0.149243
C	 1.2141339901	 1.947715083	 0.0169544644	-0.281619
C	 1.3092281721	 2.9514526693	-1.1396662015	 0.048112
C	 2.5805457695	 3.8515923241	-1.1858061116	-0.408354
C	 2.8955570148	 3.1441706829	-2.5288127619	 0.4362
O	 3.7608497234	 3.2030809388	-3.3570963094	-0.349837
N	 1.7514707148	 2.3867414273	-2.4196886375	-0.321235
H	-0.9572780679	 1.5091536375	-0.1152107166	 0.077774
H	 1.0602826444	 2.5070372349	 0.9493318206	 0.123892
H	 2.1336955733	 1.3607747649	 0.0906833137	 0.128809
H	 0.3732593154	 3.5170433953	-1.2262952104	 0.0935
H	 2.3991039741	 4.9241060332	-1.2698159824	 0.137107
H	 3.3118979747	 3.6599381985	-0.3984278798	 0.135699
H	 1.372092857	 1.6546561872	-3.0026915969	 0.260033
