15
gdb 30626	4.7061	1.05964	0.86962	3.5474	70.22	-0.2402	-0.0143	0.2259	1269.4931	0.114113	-454.014868	-454.006784	-454.005839	-454.048282	28.543	
C	 0.0282345334	 1.3410761191	 0.0090948164	-0.237927
O	-0.0249163544	-0.0880668821	 0.0018436216	-0.220804
C	-1.2630891793	-0.609716622	 0.0085051589	 0.372262
O	-2.2766908147	 0.0538651854	 0.0199279357	-0.391829
C	-1.255324839	-2.0815664181	 0.000873919	 0.153384
C	-2.392543575	-2.8563449681	 0.0054104273	-0.130887
N	-1.9454602874	-4.1479218305	-0.004750548	-0.239829
C	-0.5751584269	-4.1060425897	-0.0146963327	 0.013813
N	-0.1280450048	-2.8773803144	-0.011512121	-0.295607
H	 1.0877662214	 1.5972539021	 0.0022738559	 0.131966
H	-0.4708541973	 1.752613761	-0.872383512	 0.136859
H	-0.4571097632	 1.7430928684	 0.9025634366	 0.136858
H	-3.4360188299	-2.5929638274	 0.0145750852	 0.159908
H	-2.520122318	-4.9744718147	-0.0048718204	 0.274212
H	 0.0260445852	-5.003046959	-0.0238400525	 0.137622
