25
gdb 59657	2.26918	1.26337	1.02202	1.6514	88.73	-0.2395	0.0701	0.3096	1353.3927	0.226557	-389.490765	-389.479966	-389.479022	-389.526054	40.569	
C	-0.2489877198	 1.4324121245	-1.0144125038	-0.39232
C	-0.0456626431	 0.0646003049	-0.3463191698	 0.003617
C	 0.7375003414	 0.19654978	 0.9676006023	-0.398112
C	-1.3970341952	-0.596387322	-0.1039160316	 0.138714
O	-2.2013884859	-0.7026733891	-1.3032117297	-0.3028
C	-2.6448443128	-2.0204990402	-0.9310718371	-0.105956
C	-1.5640296699	-2.1282696326	 0.1742298938	 0.256284
C	-0.388153358	-3.0040657577	-0.2613313138	-0.447307
C	-2.0520593303	-2.5051621168	 1.5691797397	-0.458885
H	 0.7141557506	 1.8989832211	-1.2454631092	 0.105316
H	-0.8173003677	 1.3301742144	-1.9418516889	 0.136635
H	-0.7996971689	 2.1126429295	-0.3534533367	 0.108685
H	 0.5268276036	-0.5660617552	-1.0371038746	 0.072469
H	 0.1953960171	 0.8246163118	 1.6844099233	 0.114375
H	 0.9141788348	-0.7736519991	 1.4426957436	 0.114238
H	 1.7123178618	 0.6624291399	 0.791948711	 0.114994
H	-1.9410851349	-0.0074560422	 0.6556136834	 0.054455
H	-3.676878927	-2.0117164836	-0.551317139	 0.088213
H	-2.5768951784	-2.7288477019	-1.7653885738	 0.096562
H	-0.0620478556	-2.7655764803	-1.2777540035	 0.126169
H	 0.4719574325	-2.894340546	 0.4071250389	 0.116465
H	-0.6830366647	-4.0596595114	-0.2474600439	 0.111769
H	-2.3716496997	-3.553123115	 1.6043933357	 0.114206
H	-1.2579196029	-2.3794682832	 2.3138719633	 0.117282
H	-2.9006261167	-1.8854746994	 1.8766262104	 0.114935
