18
gdb 121468	5.11908	0.76103	0.68594	3.2382	72.21	-0.2481	0.0099	0.258	1603.3024	0.147898	-476.221281	-476.212398	-476.211453	-476.256459	31.3	
O	-0.3431072594	 1.5540413361	 0.2069078683	-0.423449
C	 0.076696814	 0.2061416714	 0.2020371629	-0.048291
C	-1.07668211	-0.7305471734	-0.1595406479	-0.162603
N	-1.6315969371	-0.2906275013	-1.4369160038	-0.354309
C	-2.2352347063	-1.1050945559	-2.1773858972	 0.419034
C	-2.8759873365	-0.8105397651	-3.5177795681	-0.190899
O	-3.0818389442	-2.1004180794	-4.0768730775	-0.234635
C	-3.2222548578	-2.9693328933	-2.9877831729	 0.023913
O	-2.4356306453	-2.4333491514	-1.9216380083	-0.241607
H	-0.8465331339	 1.6608152007	-0.6111495084	 0.288023
H	 0.9065949891	 0.0454917806	-0.5064600534	 0.082034
H	 0.4479632016	-0.0249007768	 1.2063082403	 0.100592
H	-0.7404806972	-1.775387951	-0.1834520766	 0.105579
H	-1.8560009072	-0.6472071753	 0.6097130606	 0.115551
H	-3.8245012892	-0.2685010928	-3.381564277	 0.127088
H	-2.2257031988	-0.2305548374	-4.1738434148	 0.150694
H	-4.2679705583	-3.0386801574	-2.6469135707	 0.107816
H	-2.8392386636	-3.9565290883	-3.2577355156	 0.135471
