19
gdb 30679	3.72155	0.9836	0.83204	3.6861	77.34	-0.2194	0.0323	0.2517	1379.5451	0.160579	-419.245323	-419.236334	-419.23539	-419.279546	33.314	
C	 0.040330177	 1.6119292251	 0.1712461497	-0.399189
C	-0.0335681089	 0.084724879	 0.0850608176	-0.106276
C	 0.7747121599	-0.576842506	 1.2215684544	-0.066466
O	 2.1518526401	-0.2285136929	 1.1966999725	-0.421173
C	-1.4393197605	-0.4421136748	 0.0853901818	 0.281912
C	-2.6193993716	 0.2139717737	 0.3332532301	-0.19224
N	-3.6066397333	-0.7427530905	 0.2236718793	-0.237879
C	-2.9936563704	-1.9195856715	-0.0807187382	 0.009507
N	-1.6931032092	-1.7773773264	-0.1715253573	-0.309395
H	 1.0840589698	 1.930737544	 0.2145528961	 0.126819
H	-0.4382460756	 2.0874439069	-0.6902656784	 0.108826
H	-0.4542362933	 1.9758598402	 1.0796593087	 0.109731
H	 0.4335256525	-0.2380818818	-0.8578607536	 0.076442
H	 0.3958186044	-0.2276278866	 2.1891591384	 0.103745
H	 0.6310217703	-1.6642434919	 1.1799839587	 0.11038
H	 2.5413297036	-0.6417837259	 0.4194407752	 0.281061
H	-2.849064561	 1.2402885185	 0.562967348	 0.12937
H	-4.5946055202	-0.593254295	 0.3392678023	 0.265907
H	-3.5449766638	-2.8369573343	-0.2253194755	 0.128917
