14
gdb 23193	2.63685	1.38483	0.99835	4.3723	72.36	-0.2571	-0.0235	0.2337	1133.0853	0.100441	-432.779441	-432.771581	-432.770637	-432.812024	29.133	
O	-0.1404274584	 1.3243327887	-0.0272898469	-0.381274
N	 0.0339781903	-0.0633482924	-0.0546929836	-0.238555
C	-1.0805606417	-0.6572787012	-0.1003728158	 0.376111
C	-2.5471587543	-0.3141775588	 0.0561255851	-0.259584
N	-2.8818139884	-1.7834205042	 0.2217178891	-0.142787
C	-2.4832532727	-2.4213887086	-1.02688385	-0.260093
C	-1.3934030354	-2.1125721658	-0.04695884	 0.108519
C	-0.6527967035	-3.1228812922	 0.6433665567	 0.221135
N	-0.038079629	-3.9385217651	 1.1852608852	-0.332103
H	 0.7660598747	 1.6452538353	 0.0397592555	 0.318043
H	-2.7535819762	 0.2363016141	 0.9766739396	 0.15731
H	-3.0614885363	 0.1628287203	-0.7826830929	 0.138774
H	-2.7832112965	-3.4623009793	-1.0950267522	 0.158087
H	-2.5201764924	-1.8605415009	-1.9584257401	 0.136416
