16
gdb 30886	2.62756	1.29959	0.91445	1.5778	68.55	-0.1668	0.0604	0.2272	1233.6666	0.122681	-475.027702	-475.018258	-475.017314	-475.061944	34.021	
C	 0.2723848426	 1.0214444866	-0.3925819069	-0.248346
O	-0.2044102486	 0.1959117634	 0.6765162686	-0.277303
C	-1.3038295494	-0.5439699527	 0.3724848574	 0.190362
C	-1.406819436	-1.8554977227	 0.0002938199	 0.265296
O	-0.3908238106	-2.7443590858	-0.2020473123	-0.459986
C	-2.7947608295	-2.1661728335	-0.1726975553	-0.392954
C	-3.4798804263	-1.009504101	 0.1079601074	 0.390019
O	-4.8031890976	-0.705715284	 0.1414702981	-0.436448
N	-2.5992332762	-0.0116390688	 0.410479513	-0.362209
H	 1.1727937925	 1.5205436707	-0.0270787247	 0.127961
H	 0.5133538089	 0.419093183	-1.2764793161	 0.122971
H	-0.4725882765	 1.7761831034	-0.672406078	 0.118043
H	 0.4203290876	-2.3271652321	 0.1096487797	 0.295435
H	-3.2075662166	-3.1135653276	-0.479901683	 0.095237
H	-5.2996555182	-1.5106351773	-0.0344594767	 0.306756
H	-2.8559157362	 0.8454857783	 0.8698770189	 0.265165
