15
gdb 16634	3.35643	2.36879	1.55588	4.6984	61.05	-0.2396	0.0532	0.2928	806.594	0.119875	-399.827973	-399.821024	-399.82008	-399.859243	25.716	
C	-0.0691467824	 1.3926517667	 0.0546441819	-0.343038
N	-0.0314949635	-0.0471611949	 0.1744293597	-0.124083
C	-1.1787233893	-0.8954958807	 0.1167735553	-0.031234
C	-1.3644293076	-1.6975952811	-1.1625278233	-0.341673
C	-0.5747296021	-2.2615308491	-0.0085514984	 0.083966
O	 0.8265628441	-2.1031024653	-0.0255338982	-0.244186
C	 1.1384717953	-0.7613982239	 0.0401106784	 0.474502
O	 2.2604322939	-0.3406674221	-0.0293726053	-0.397104
H	 0.9604125486	 1.752031701	 0.0901302301	 0.169814
H	-0.5272456619	 1.7069304916	-0.8918766973	 0.126795
H	-0.6347788875	 1.8377525211	 0.8805984866	 0.127767
H	-2.0109120595	-0.6511303625	 0.7678000075	 0.112927
H	-2.3408807977	-2.1374593402	-1.3348236228	 0.126897
H	-0.8291336635	-1.3806125459	-2.051075961	 0.135231
H	-0.8964316868	-3.1367390546	 0.5399427468	 0.123418
