20
gdb 83764	2.55262	1.87938	1.49997	0.8388	78.12	-0.1925	0.0937	0.2861	981.108	0.171467	-403.101988	-403.094045	-403.093101	-403.133823	31.68	
C	-0.2051440823	 1.511201951	 0.035720943	-0.345557
N	 0.0784621419	 0.0807706839	 0.0374188779	-0.117723
C	 1.133648223	-0.4937107268	-0.8548288862	-0.034593
C	 2.3134011471	 0.4600876045	-1.0326297292	-0.091175
O	 2.7555396134	 0.7242799691	 0.3055810001	-0.26909
C	 2.2464061062	-0.3145816051	 1.1184724488	 0.050551
C	 1.5965602032	-1.395800589	 0.3154947666	-0.218451
C	 0.7322633425	-0.5132808745	 1.2056912145	 0.330641
C	-0.0277186764	-0.8094300804	 2.4627798882	-0.502581
H	 0.6590507994	 2.1503560986	 0.2686151651	 0.121143
H	-0.6067395209	 1.7990282167	-0.9419200749	 0.114797
H	-0.9863935021	 1.7111133628	 0.7767843072	 0.118345
H	 0.7561550742	-0.9429900459	-1.7762127142	 0.075839
H	 3.1164470384	-0.0051760013	-1.6256934063	 0.093535
H	 2.0419513895	 1.4122715899	-1.4992955073	 0.108669
H	 2.8698256856	-0.5340478651	 1.9780654235	 0.100174
H	 1.7992600759	-2.4576110568	 0.3135938236	 0.09361
H	 0.5847709514	-1.3912764264	 3.1586910035	 0.120233
H	-0.3227279127	 0.1134959948	 2.9753679483	 0.124392
H	-0.9355118073	-1.38003704	 2.240154408	 0.12724
