15
gdb 33990	2.37136	1.77459	1.2185	2.9237	70.91	-0.2646	-0.0137	0.2509	1008.2331	0.112488	-416.742634	-416.735106	-416.734162	-416.774764	28.544	
N	-0.0788390463	-1.1411710607	-0.0813572439	-0.341728
C	 0.002446634	 0.0115911655	-0.0292392166	 0.193039
C	 0.0391638572	 1.4319576072	 0.1167864756	 0.277539
O	 0.280709386	 2.2646268621	-1.0265827505	-0.269752
C	 1.1534553076	 2.4110205034	 0.0936249336	-0.05686
C	 0.4492507811	 3.3096014607	 1.1258621326	-0.324566
C	-0.7063149715	 2.2791086329	 1.1463142815	 0.264171
C	-2.1644116079	 2.3844640899	 1.3339110535	-0.296788
N	-1.2993302849	 1.782170866	 2.3740460709	-0.360118
H	 2.210486733	 2.2400118599	-0.0700189442	 0.13678
H	 0.9604155743	 3.3469402476	 2.0901730881	 0.137019
H	 0.2218925001	 4.3174251322	 0.7738438346	 0.12882
H	-2.6059149981	 3.337823048	 1.6093371086	 0.133321
H	-2.8043127486	 1.7362713941	 0.7409205295	 0.130911
H	-1.372744276	 0.7662809712	 2.3579665568	 0.24821
