18
gdb 87356	1.83906	1.58496	0.9924	3.1399	73.86	-0.2452	-0.037	0.2082	1212.467	0.144003	-439.068758	-439.059049	-439.058105	-439.104183	33.981	
C	-0.1662946722	 1.5060026647	 0.4220292663	-0.325213
N	 0.0286841274	 0.0712321182	 0.237554946	-0.109843
C	 1.3196656806	-0.3976663136	-0.1986541645	-0.283171
C	 0.8463184255	-0.683318877	 1.2067587087	 0.190922
C	 1.5578216819	-0.0443399588	 2.3916643128	-0.378491
C	 0.6013359108	 0.3977987489	 3.4856420374	 0.159527
O	 0.5792669865	 1.5089090769	 3.9496695847	-0.242548
C	 0.2995124679	-2.0561432475	 1.4470083358	 0.142373
O	 0.5140980711	-2.7084003149	 2.4387951906	-0.269292
H	 0.7294997536	 2.0476597501	 0.7559584333	 0.1198
H	-0.4854396923	 1.9278044562	-0.5354775431	 0.134707
H	-0.9625876928	 1.6734370708	 1.1519648198	 0.143288
H	 1.3239092285	-1.1805931926	-0.9538080606	 0.127576
H	 2.1402722289	 0.3155958887	-0.2741594418	 0.123721
H	 2.2081666588	-0.8157485653	 2.824286597	 0.149619
H	 2.1743791465	 0.8076993051	 2.1024426669	 0.122898
H	-0.0904030449	-0.3937309702	 3.8448245095	 0.10103
H	-0.3307566559	-2.4313886099	 0.612624121	 0.093096
