20
gdb 36893	3.73536	1.08526	1.01351	1.4322	79.02	-0.2357	0.093	0.3288	1251.8681	0.17136	-403.070072	-403.061948	-403.061003	-403.103488	31.116	
C	 0.0323033436	 1.4606172755	 0.5411172145	-0.181464
C	 0.0990338255	 0.0599572311	-0.0132994307	 0.106123
C	-1.1111323709	-0.6783303827	-0.3892942272	-0.182871
O	-0.2716171694	-0.09822304	-1.3888105417	-0.22963
N	 1.2731970958	 2.1677875142	 0.2535153838	-0.084404
C	 1.5787895684	 2.73354626	-1.043993376	-0.025241
C	 0.3507220655	 3.3464438634	-1.7410859764	-0.244575
C	 0.1335889347	 4.2605666002	-0.4923715061	-0.247328
C	 1.3647566343	 3.609766335	 0.1702429264	-0.04539
H	-0.8741650601	 1.9441029777	 0.1488870966	 0.096108
H	-0.0699968847	 1.4136503964	 1.6330119467	 0.105976
H	 0.9857373448	-0.5064315031	 0.2719923008	 0.100961
H	-1.1145512925	-1.7666825536	-0.35272752	 0.115426
H	-2.0871297511	-0.2092189544	-0.2688779258	 0.111821
H	 2.4984260065	 2.4241764734	-1.5286326027	 0.090919
H	 0.6214053701	 3.9227008099	-2.628174803	 0.103299
H	-0.4391451369	 2.6397202156	-2.0076150773	 0.117238
H	 0.3055364262	 5.314420004	-0.7217158589	 0.105765
H	-0.8167024698	 4.1771307126	 0.0443370483	 0.098195
H	 2.0837053702	 4.1145485146	 0.8073520186	 0.089073
