19
gdb 42365	2.1882	1.14213	0.86027	2.4064	81.1	-0.2389	-0.0172	0.2217	1390.2231	0.156425	-385.85914	-385.849386	-385.848442	-385.895274	35.197	
O	-0.0030804363	 2.5704560065	-1.8206227146	-0.297882
C	-0.0268516421	 1.7695810534	-0.9188723995	 0.403462
C	 1.1540510327	 1.7144046411	 0.0778281258	-0.448041
C	 1.517028627	 0.3864012563	 0.5483729656	 0.304804
C	 1.8128143854	-0.7162996422	 0.9250142569	-0.456826
C	-1.2036903553	 0.837060657	-0.6807427719	-0.324206
C	-1.8240729541	 1.0111326948	 0.6969318154	 0.01398
C	-2.7213805186	 2.1932027304	 0.974800842	-0.257149
C	-3.3051001617	 0.8048261448	 0.8845555956	-0.27373
H	 1.9994835532	 2.2119969265	-0.4062431188	 0.156032
H	 0.8660584807	 2.3433885704	 0.93254851	 0.159171
H	 2.0813553596	-1.6881636687	 1.2583046845	 0.202872
H	-1.9364411119	 1.0431259682	-1.4656203213	 0.116504
H	-0.8566469947	-0.1971076968	-0.7973692059	 0.131801
H	-1.1937621634	 0.6807449505	 1.516921313	 0.099986
H	-2.6665298179	 2.6681190678	 1.9480475104	 0.113779
H	-2.9192258432	 2.8781571221	 0.1567539804	 0.123675
H	-3.8982316452	 0.5600372738	 0.009701849	 0.115993
H	-3.6435139342	 0.3268229439	 1.7971248134	 0.115774
