23
gdb 40260	2.66552	1.41935	1.09381	0.248	90.52	-0.2343	0.0234	0.2577	1210.0593	0.208191	-351.158885	-351.150459	-351.149515	-351.191751	34.035	
C	 0.0720320706	 1.5698747347	 0.091904329	-0.292617
C	 1.361461665	 0.7833641971	 0.0366910099	-0.325505
C	 0.0329835385	 0.0653272214	-0.019856862	 0.407082
C	-0.3699541739	-0.7279560055	 1.2139886347	-0.27067
C	-1.8794718242	-0.8335609979	 1.4779992777	-0.183932
C	-2.6671263309	-1.6522751252	 0.4388750774	-0.242999
C	-2.8245283603	-1.0009636573	-0.9155890866	-0.049312
C	-1.8461402859	-0.5204005713	-1.6823381514	-0.044923
C	-0.3654575507	-0.5296692011	-1.3677442058	-0.338255
H	-0.2076701255	 2.02417759	 1.0371764606	 0.105923
H	-0.2073398387	 2.1570623266	-0.7766639106	 0.107031
H	 1.9559079452	 0.8390883344	-0.8695248813	 0.105232
H	 1.9496749728	 0.7027876459	 0.9452987499	 0.105414
H	 0.0503767027	-1.7420288573	 1.1384896128	 0.087921
H	 0.1030413486	-0.2695709461	 2.0911693234	 0.08651
H	-2.0197014034	-1.3022525711	 2.4599009506	 0.087113
H	-2.3107155966	 0.1726189826	 1.5459705543	 0.097909
H	-2.179586758	-2.6327494843	 0.3227712162	 0.103775
H	-3.6621074519	-1.8650009811	 0.8438850886	 0.095166
H	-3.8421237097	-0.9352438096	-1.2950971862	 0.080997
H	-2.1203157319	-0.0924447919	-2.6442325887	 0.080574
H	 0.1624669381	 0.0139996768	-2.1582308205	 0.092752
H	 0.01297081	-1.5629304399	-1.417013532	 0.104813
