23
gdb 106806	2.3542	1.48874	1.10378	1.2953	85.54	-0.221	0.0836	0.3046	1230.2335	0.205625	-388.296383	-388.287028	-388.286084	-388.330012	36.314	
C	 0.2303802931	 1.5273684923	 0.1380821144	-0.373935
C	-0.1482674607	 0.0645308049	-0.1251105256	-0.261067
C	 0.6182985631	-0.5386806231	-1.2724085476	 0.444742
C	 2.0263184388	-1.0770545902	-1.1225991329	-0.40814
C	 0.8803750584	-2.0048394381	-1.515463694	 0.249822
C	 0.448441655	-3.1196172225	-0.5942721946	-0.480487
C	 0.681749847	-2.1927797139	-3.0155757375	-0.286122
C	 0.7076665528	-0.7526816968	-3.5656399842	-0.099915
O	 0.3088525035	 0.0988920173	-2.4950316374	-0.303557
H	 1.2899788016	 1.6166971696	 0.3996078373	 0.113666
H	 0.0532287773	 2.1350695044	-0.7530697459	 0.13495
H	-0.3583503229	 1.9435568991	 0.9612374741	 0.104969
H	 0.0297184686	-0.5350108989	 0.7744738038	 0.094724
H	-1.2201516358	-0.0056107203	-0.3482286728	 0.101019
H	 2.7829795254	-0.8125037123	-1.8542334089	 0.108475
H	 2.4089484362	-1.1819271965	-0.1118244718	 0.105884
H	 0.5350590852	-2.8301971482	 0.4575287192	 0.116102
H	-0.593421212	-3.4076376045	-0.7780983796	 0.115263
H	 1.0686165544	-4.0124490069	-0.7378684517	 0.117051
H	 1.4437883241	-2.8228343371	-3.4861317735	 0.100837
H	-0.2931486919	-2.6630913408	-3.1902213472	 0.102319
H	 1.7167000303	-0.4837987004	-3.9089927326	 0.09632
H	 0.0188806182	-0.591040577	-4.399628361	 0.10708
