16
gdb 30030	3.39984	1.66682	1.12642	3.6856	78.69	-0.1792	0.0173	0.1966	1030.3792	0.127978	-396.969897	-396.962578	-396.961634	-397.001615	28.187	
C	 0.0007650145	 1.4539237054	 0.0201120396	-0.34521
N	-0.008062811	 0.01163089	 0.0202716653	-0.166166
C	-0.0596666439	-0.8242134335	-1.0850638089	-0.015362
N	-0.0539233861	-2.1031589753	-0.8236346679	-0.372507
C	 0.0069170529	-2.1525622338	 0.5638176881	 0.252153
C	 0.0486660328	-3.0426800855	 1.6205479617	-0.21017
N	 0.1019038358	-2.2710361809	 2.7588436059	-0.232706
C	 0.096374106	-0.9130671628	 2.4840360885	-0.239012
C	 0.0369413117	-0.8368997671	 1.1112214739	 0.295794
H	 0.9142702131	 1.8446334267	 0.4835385209	 0.136692
H	-0.0436767248	 1.8118935261	-1.0109654521	 0.139928
H	-0.8624118794	 1.8553951104	 0.5638245187	 0.136713
H	-0.1013600535	-0.3953954832	-2.0782884844	 0.119877
H	 0.0455151865	-4.1180075192	 1.6730673577	 0.123544
H	 0.141724227	-2.6486668087	 3.6890543529	 0.260941
H	 0.1348225786	-0.1822983984	 3.2728872602	 0.115491
