19
gdb 87530	2.95358	1.50245	1.30209	2.3801	74.94	-0.2376	0.0699	0.3075	1039.1053	0.160221	-422.975936	-422.968278	-422.967334	-423.007867	30.718	
O	-0.1449318441	 1.4548462062	-0.0633432026	-0.423955
C	-0.0263387162	 0.0611578247	 0.0022348297	-0.009953
C	-0.5020736912	-0.679930746	 1.2460244401	-0.426527
C	-1.297798658	-0.6987163551	-0.019856572	 0.437512
C	-2.7446851997	-0.2492146904	-0.2227526492	 0.000887
C	-2.8057522458	 0.0555109747	-1.7349920309	-0.219054
C	-2.0835045468	-1.2433960526	-2.2287662847	-0.218079
C	-1.8379627117	-1.8724698274	-0.8390344985	-0.027777
O	-3.1294867968	-1.6647384938	-0.1822195012	-0.303864
H	 0.5499460961	 1.8408560768	 0.4804298532	 0.289516
H	 0.8332193272	-0.3550894818	-0.5261254756	 0.085159
H	 0.0365737614	-1.5718899706	 1.551595111	 0.113388
H	-0.8811639432	-0.0729043459	 2.0625959476	 0.117984
H	-3.2824446718	 0.385233208	 0.4803833899	 0.081432
H	-3.8368203334	 0.1247495958	-2.0874736727	 0.102945
H	-2.2738400233	 0.9738813164	-1.9925002714	 0.11778
H	-2.725152191	-1.8782087614	-2.8432334059	 0.105374
H	-1.157289286	-1.0443516941	-2.7745330243	 0.099343
H	-1.4538332755	-2.8900303735	-0.7649610123	 0.077889
