15
gdb 67538	2.54167	1.87087	1.52942	6.0289	64.32	-0.2414	0.0059	0.2473	900.829	0.113396	-453.890322	-453.883148	-453.882204	-453.921696	28.237	
N	-0.0254396608	 1.4865682054	 0.1274384225	-0.602981
C	 0.0515244283	 0.0739425762	-0.0259409158	 0.135292
C	 1.2429491075	-0.6249414663	 0.6903887274	-0.079212
N	 0.9646237601	-2.0714398311	 0.7087699282	-0.318719
C	 1.5377518977	-1.4600944838	-0.5108627735	-0.082107
C	 0.364158069	-0.8062707893	-1.2831123423	 0.049103
O	-0.9203900672	-1.4716500184	-1.1547866144	-0.251532
C	-1.2734891808	-0.7335357809	-0.0389595624	 0.44007
O	-2.3015830832	-0.7608423038	 0.5507556129	-0.321647
H	 0.8661023168	 1.9350577542	-0.0557206662	 0.237951
H	-0.7229622336	 1.90080006	-0.4814352179	 0.246519
H	 1.8940426822	-0.1531145627	 1.4162336908	 0.105016
H	 1.7257508114	-2.5304457987	 1.2073028553	 0.241477
H	 2.4808452369	-1.7988074567	-0.919656699	 0.104178
H	 0.5453760658	-0.422802464	-2.2854401054	 0.096591
