20
gdb 96266	2.22068	1.52794	0.97327	2.98	76.26	-0.2373	0.0295	0.2668	1227.4072	0.17222	-440.327577	-440.318827	-440.317882	-440.361038	33.346	
C	-0.0042112356	 1.5471092835	 0.0863266174	-0.396444
C	 0.0128992218	 0.0235890602	 0.0274574019	 0.114937
C	 0.5985912819	-0.4788747048	-1.3087071977	-0.305514
C	 0.2758980093	-1.924465508	-1.6735380962	 0.35919
O	-0.2927932808	-2.2186866546	-2.7095178084	-0.365884
N	 0.6507728058	-2.8842139104	-0.7726347317	-0.294373
C	 1.3838837833	-2.6967078417	 0.4688924311	-0.177865
C	 0.6881055701	-1.7730598924	 1.4730438304	-0.060778
O	 0.7780813062	-0.4040066909	 1.1499715431	-0.252294
H	 1.0076670048	 1.9451740633	-0.039523959	 0.124413
H	-0.6401664673	 1.9573650349	-0.7027793837	 0.120683
H	-0.3850173955	 1.8800126391	 1.0550667615	 0.1243
H	-1.0177679414	-0.3553772265	 0.1305958291	 0.077891
H	 0.207678908	 0.1201848063	-2.1332441294	 0.127503
H	 1.6860800875	-0.3339457924	-1.2735422763	 0.119284
H	 0.4420965813	-3.8242057366	-1.0730836103	 0.24697
H	 1.4934183333	-3.6837879926	 0.9275914088	 0.115174
H	 2.3968439231	-2.3121247181	 0.2843020729	 0.120243
H	-0.3637602721	-2.0841138827	 1.5815294785	 0.093865
H	 1.1802355165	-1.8778099855	 2.446011678	 0.108699
