17
gdb 23423	3.59472	1.2567	1.04195	1.643	72.23	-0.2318	-0.0024	0.2294	1138.38	0.136983	-455.072216	-455.06436	-455.063416	-455.104923	29.742	
O	-0.1617369356	 1.3297845661	 0.0142742102	-0.391111
N	 0.0102021081	-0.0626094359	 0.1077635887	-0.232259
C	-1.0994691748	-0.6698453599	-0.0010013051	 0.433752
C	-2.4947060248	-0.1098615705	-0.1372978777	-0.168125
O	-3.3661271069	-1.1189460925	 0.3770053874	-0.279006
C	-2.721968626	-2.3807842029	 0.4164133633	 0.127223
C	-2.8274387175	-3.2491071358	-0.8632497929	-0.194621
N	-1.5004436028	-2.7463566439	-1.2955600762	-0.317064
C	-1.2282504244	-2.1626378107	 0.0477301673	-0.154804
H	 0.7330148933	 1.6575295027	 0.1552563951	 0.308406
H	-2.6290402248	 0.8078510725	 0.4416054571	 0.136126
H	-2.7213341274	 0.1107381007	-1.1903968168	 0.127481
H	-2.9793608146	-2.8672035574	 1.3589693901	 0.090265
H	-2.8632975817	-4.3226027607	-0.6341681581	 0.094612
H	-3.6489246765	-3.0003613326	-1.5428628441	 0.111546
H	-0.8346157199	-3.4442606307	-1.6030247997	 0.224579
H	-0.4622723237	-2.6550269783	 0.6511916616	 0.082999
