19
gdb 83903	2.56639	1.42785	1.2125	5.1742	80.39	-0.2457	0.0251	0.2709	1113.3799	0.160486	-382.069218	-382.060649	-382.059705	-382.102412	32.003	
C	-0.1074557487	 1.5453365877	 0.0634664295	-0.331541
N	 0.1275635089	 0.1104544419	 0.0756693336	-0.116791
C	 1.367466017	-0.5285600302	-0.3107815949	-0.068324
C	 2.6732029289	 0.2496912781	-0.3702708091	-0.236767
C	 2.8738065555	 0.9011945185	 1.0243546137	-0.231353
C	 1.875826022	 0.2158633796	 1.9952253596	-0.288968
C	 0.8886971741	-0.5633037888	 1.1234895204	 0.169466
C	 0.2494596614	-1.717161167	 1.7149791815	 0.244453
N	-0.2405697111	-2.6401257593	 2.2101963714	-0.348012
H	 0.7364922614	 2.1763793558	 0.3693793832	 0.110147
H	-0.3957635362	 1.8324542917	-0.9522233309	 0.136018
H	-0.9528393782	 1.7616565158	 0.723015324	 0.139641
H	 1.2498645218	-1.3876616174	-0.9666996843	 0.110274
H	 3.4795219326	-0.4551906287	-0.5977054608	 0.117655
H	 2.6699300133	 0.9921501833	-1.1754771536	 0.114187
H	 3.9024895906	 0.7787242968	 1.37236138	 0.11314
H	 2.6930525514	 1.9777580405	 0.9805135381	 0.118251
H	 2.3841348018	-0.4943448241	 2.6538828221	 0.128885
H	 1.3641771533	 0.9347982858	 2.6430409867	 0.119639
