17
gdb 57162	2.42071	1.48631	0.93282	1.6548	80.21	-0.2463	-0.0384	0.2079	1225.631	0.133536	-418.002102	-417.992208	-417.991264	-418.038762	34.987	
C	-1.5997674384	 0.6132350214	 0.794552432	-0.327284
N	-0.4272854749	 0.053241447	 0.1190494017	-0.159187
C	 0.7885722158	-0.1841518685	 0.7711801803	 0.406396
C	 0.8918921747	 0.2367677677	 2.2294608163	-0.50511
O	 1.7295326024	-0.7013138505	 0.2116835202	-0.327069
C	-0.6370565012	-0.2755081487	-1.2310631135	 0.285017
N	-1.8166318532	-0.0965730055	-1.7060439201	-0.527515
C	 0.4378300703	-0.7696155444	-2.044705078	 0.277711
C	 1.1628323453	-1.1708910044	-2.9178846139	-0.444653
H	-1.3426746903	 0.9028057386	 1.8083674505	 0.129484
H	-1.9629279159	 1.4843210701	 0.2452220056	 0.153504
H	-2.4117083537	-0.1183709689	 0.816268382	 0.150019
H	 0.1740679782	-0.2943117911	 2.8617179015	 0.147499
H	 1.9019572366	-0.0104562591	 2.5538251367	 0.153337
H	 0.7262733483	 1.3103687702	 2.3600062772	 0.147291
H	-1.8284122915	-0.3584532239	-2.6896885071	 0.233399
H	 1.8606117275	-1.5315621302	-3.6329570614	 0.207162
