19
gdb 83333	2.12256	1.6909	1.54474	3.2422	71.07	-0.2297	0.0652	0.2949	1006.2387	0.158423	-460.134975	-460.126292	-460.125348	-460.167498	33.814	
C	 0.0558713564	 1.5070320466	-0.0057011661	-0.51019
C	 0.0194414941	 0.0117880337	 0.1015974807	 0.410799
O	 0.3833034814	-0.6194105283	-1.1376351225	-0.315218
C	 0.308391885	-2.0285610926	-0.8117831408	-0.076846
C	-0.156306334	-1.9483082131	 0.6428433217	-0.203632
C	 0.7924317835	-0.8144057701	 1.1626040796	 0.099671
O	 2.1762161557	-0.9117103354	 0.9615405227	-0.438137
C	-1.233398253	-0.8177491285	 0.508613675	 0.085086
O	-1.8177600473	-0.3583885204	 1.7059957681	-0.445425
H	 1.0848708679	 1.8522929332	-0.1419958198	 0.13492
H	-0.5368513252	 1.8436653866	-0.8615172986	 0.126077
H	-0.3529815103	 1.9571341655	 0.9028499386	 0.130235
H	-0.4068247675	-2.5290702516	-1.4747959715	 0.094196
H	 1.2960150139	-2.4882259564	-0.9211547842	 0.109672
H	-0.3357475572	-2.878512085	 1.1830799182	 0.060943
H	 0.5304714671	-0.5055029153	 2.1765042627	 0.090473
H	 2.573740942	-1.2839081072	 1.7537652866	 0.286123
H	-1.9715686849	-0.9461516907	-0.2931067358	 0.074417
H	-2.4238998376	-1.0346683308	 2.0244526854	 0.286834
