18
gdb 67629	2.4718	1.91807	1.58933	1.4365	74.13	-0.2182	0.0713	0.2895	934.4647	0.14809	-401.886834	-401.879356	-401.878411	-401.918258	30.198	
C	-0.134353979	 1.5083486767	-0.0082374036	-0.51951
C	-0.0043816809	 0.0167288293	-0.0082207723	 0.281725
C	 0.896337442	-0.844484683	-0.9492664171	-0.112163
C	-0.1277582563	-1.9218687468	-0.9889196632	-0.147283
N	 1.1433851099	-2.1322763202	-0.2731841623	-0.119848
C	 0.9192912578	-1.9584774627	 1.1718639333	-0.172898
C	-0.1746210149	-0.9099758268	 1.1951859393	-0.225087
C	-1.0394636664	-1.0800178203	-0.0381324907	 0.335881
O	-2.4082213164	-0.9531221443	-0.111750914	-0.466941
H	 0.7839695865	 1.9904448077	 0.3476148111	 0.1199
H	-0.3429784176	 1.8902637529	-1.0138185723	 0.125212
H	-0.9549805852	 1.8282498317	 0.6408403009	 0.128856
H	 1.5922869236	-0.4831001392	-1.6965375826	 0.091307
H	-0.4371624029	-2.5998089208	-1.7749133907	 0.094952
H	 0.6147877205	-2.9128983513	 1.6150963078	 0.10153
H	 1.8486628697	-1.6294434229	 1.6479227993	 0.106824
H	-0.6171681093	-0.5155797804	 2.1023729174	 0.090712
H	-2.8108900611	-1.6816568095	 0.3748437098	 0.286831
