18
gdb 71323	3.7788	1.4676	1.28949	2.9387	75.37	-0.244	-0.0286	0.2153	1012.5092	0.148196	-401.918159	-401.910753	-401.909809	-401.949718	29.506	
C	-0.0524408853	 1.5162763706	-0.0516566706	-0.484182
C	-0.0103631426	 0.009371626	-0.0166717328	 0.374899
C	-1.319214226	-0.7549295786	 0.2969495401	-0.30395
C	-0.4946306029	-1.6533342501	 1.2480462902	-0.126489
N	 0.6979386104	-0.6854424396	 1.1677940824	-0.189106
C	 1.3658450014	-1.626636404	 0.1511671507	-0.126493
C	 0.9136223605	-0.7229047941	-1.0194861528	-0.303932
C	 0.3327405725	-2.6978507483	 0.49937997	 0.428369
O	 0.2766228406	-3.8866875534	 0.375261186	-0.308503
H	 0.9587113666	 1.9350285144	-0.0696621578	 0.124655
H	-0.5833862134	 1.8654435014	-0.945701303	 0.121019
H	-0.5678910895	 1.9134148386	 0.8285101255	 0.124619
H	-2.0163242184	-0.1292578747	 0.8599654104	 0.118487
H	-1.8594626861	-1.2329108677	-0.524179613	 0.115557
H	-0.9122421833	-1.9266422976	 2.2184107133	 0.100503
H	 2.4226869337	-1.8787774625	 0.2522293807	 0.100502
H	 0.4668251715	-1.1995567513	-1.8957070725	 0.115558
H	 1.7301796204	-0.0755103291	-1.3489242368	 0.118486
