23
gdb 40284	2.46736	1.519	1.16857	1.1952	84.92	-0.243	0.077	0.32	1170.7905	0.207803	-388.285122	-388.276616	-388.275672	-388.317943	34.167	
C	-0.0833990271	 1.54766355	-0.0634278564	-0.321215
C	 1.288363385	 0.9024902807	-0.0770284254	-0.323556
C	 0.0414830609	 0.0554110658	 0.0261990132	 0.450917
C	-0.3234503515	-0.6596535062	 1.3163321675	-0.270372
C	 0.6226066566	-1.794834894	 1.7712728192	-0.189954
C	 1.3076176886	-2.6060486975	 0.6541469705	-0.189204
C	 0.4506470021	-2.8902324239	-0.589732604	-0.20174
C	 0.3749304468	-1.7131056389	-1.5684216371	-0.072256
O	-0.3946064665	-0.6021303434	-1.1377074724	-0.292759
H	-0.3932370428	 2.0970771809	 0.8188094605	 0.10779
H	-0.451254729	 1.9422745383	-1.0032947728	 0.120249
H	 1.8234001438	 0.8968957738	-1.0199074407	 0.116348
H	 1.9205015151	 1.0039073474	 0.7990329257	 0.110287
H	-0.4020627408	 0.0732461375	 2.1267634305	 0.092244
H	-1.3345263676	-1.0553082012	 1.1654062673	 0.108019
H	 1.4070572045	-1.3792133005	 2.4146717824	 0.094534
H	 0.0458357334	-2.4732983722	 2.4114661511	 0.095587
H	 2.2130697958	-2.0802671423	 0.3254240663	 0.098491
H	 1.654072233	-3.5531777429	 1.0834494708	 0.09028
H	 0.8922827574	-3.729982294	-1.1417487878	 0.093549
H	-0.5635035589	-3.2016982273	-0.3094009211	 0.100745
H	 1.400073622	-1.3909446287	-1.8161658516	 0.081757
H	-0.1032538409	-2.0341107813	-2.4995937757	 0.10026
