14
gdb 124026	4.5473	1.36755	1.14033	3.3091	68.44	-0.2626	-0.0004	0.2622	1014.0859	0.103149	-432.816043	-432.80942	-432.808476	-432.847437	24.725	
C	 0.0968099953	 1.5352640728	-0.0328714536	-0.25236
O	 1.2274127893	 0.6446072992	-0.0747668781	-0.243981
C	-0.0526488113	 0.0816368635	-0.0088342946	 0.274092
C	-0.5432794661	-0.8784521606	 1.1409190892	-0.242118
N	-1.0652912842	-1.696026918	 0.0264006573	 0.060462
N	-1.8427337146	-2.7040097781	-0.4094405132	-0.274121
C	-1.8259460931	-2.4406291026	-1.7250856169	 0.021842
N	-1.1291325899	-1.3293232949	-2.1344776473	-0.382969
C	-0.6737408503	-0.9026660285	-0.9709188833	 0.325219
H	-0.0140570193	 2.1035594334	 0.8887266339	 0.131813
H	-0.1026699437	 2.0763600536	-0.9551016118	 0.14517
H	 0.2521874201	-1.3588107743	 1.7139101273	 0.154865
H	-1.3186229388	-0.4795059972	 1.7984611126	 0.149635
H	-2.3408097534	-3.0855993383	-2.4219309216	 0.13245
