19
gdb 80646	2.96585	1.51609	1.24646	3.034	74.68	-0.2567	-0.037	0.2197	1043.6809	0.160526	-423.022341	-423.014734	-423.01379	-423.054491	30.213	
O	 0.1164879215	 1.3424578626	 0.002852673	-0.444537
C	 0.0750901204	-0.060417361	-0.0765233612	 0.130943
C	-1.3844650152	-0.5378485896	-0.1874835298	-0.019112
C	-1.2226545066	-2.003793978	-0.6799018615	-0.240279
C	-0.6876299878	-1.3033069001	-1.9619032544	-0.04329
C	-1.7290040262	-0.1842853174	-1.6620200683	-0.226221
C	 0.6198267659	-0.6795892333	-1.4261719172	-0.13595
C	 1.3182359841	 0.2676446823	-2.3654678603	 0.146191
O	 1.9593516234	 1.2362315482	-2.0239826737	-0.270118
H	 0.9586687699	 1.6318659588	-0.3763118263	 0.297242
H	 0.5803948312	-0.5153085506	 0.7880950203	 0.065982
H	-2.0359014048	-0.2657312438	 0.6420154085	 0.072745
H	-0.5446259582	-2.6673035673	-0.1332396862	 0.090306
H	-2.1831228406	-2.4979108861	-0.8399697407	 0.103356
H	-0.6365202219	-1.8120330213	-2.9261107035	 0.064211
H	-2.7435849616	-0.4783003482	-1.9380195581	 0.099757
H	-1.5195640415	 0.8341908347	-1.9961414391	 0.109143
H	 1.3630096747	-1.4645673529	-1.2200792473	 0.107922
H	 1.2487599333	-0.0009983871	-3.4437584242	 0.091707
