19
gdb 32986	4.65615	0.88223	0.78859	0.6746	85.3	-0.2427	-0.0461	0.1966	1489.1418	0.161154	-382.130167	-382.121701	-382.120757	-382.164411	30.91	
C	-0.0954808467	 1.5637542931	-0.0069534425	-0.381556
C	-0.1459646925	 0.0389704871	-0.1208583115	-0.156772
C	 0.8328200447	-0.5116311038	-1.175228274	-0.277561
C	 0.8107811372	-2.0156583264	-1.2484452143	 0.310771
C	 0.2428954677	-2.7011730658	-2.3288898551	-0.060387
N	 0.194102346	-4.0310551153	-2.399201642	-0.232233
C	 0.7238835501	-4.6918895556	-1.3686222953	-0.013603
C	 1.293935277	-4.0234823114	-0.2882795319	-0.020737
N	 1.3409411575	-2.6936097521	-0.2213067501	-0.287895
H	 0.9057295101	 1.9066481863	 0.2764813165	 0.117513
H	-0.3520746946	 2.0433876429	-0.9582325905	 0.113917
H	-0.7985401526	 1.9271540733	 0.7488154326	 0.114999
H	 0.0934560999	-0.4211587522	 0.8441805701	 0.119401
H	-1.1643282302	-0.2823233065	-0.3736916721	 0.097548
H	 0.5948196123	-0.0905897156	-2.1589147659	 0.100802
H	 1.8492171899	-0.1893859814	-0.9200777976	 0.117894
H	-0.1832972065	-2.1508155039	-3.1648890871	 0.109279
H	 0.6959464253	-5.7777364671	-1.4053270654	 0.114781
H	 1.7264107952	-4.5753543456	 0.5430574861	 0.113839
