16
gdb 113532	3.80177	0.97837	0.86826	4.0405	66.85	-0.2545	0.0058	0.2603	1308.9539	0.123207	-475.006034	-474.997297	-474.996352	-475.040116	31.187	
O	 0.0775842549	 1.3413475549	-0.4272546041	-0.411645
C	 0.0719856772	 0.1035538887	 0.2583838753	-0.079657
C	-1.3156152961	-0.4810014191	 0.3309991093	-0.06969
O	-1.7910863755	-1.085189652	-0.8943278858	-0.282285
C	-1.5732862211	-1.9169081712	 0.2173797785	 0.265768
C	-0.6458397134	-3.1518364415	 0.2558367722	-0.246556
N	-1.756539213	-3.8352990425	 0.9302119933	-0.347215
C	-2.6461492467	-2.7810384461	 0.9084095149	 0.377152
O	-3.7704652991	-2.6361977114	 1.2980179706	-0.356168
H	-0.2733505402	 1.1785121762	-1.3101372762	 0.295431
H	 0.7527376147	-0.624785451	-0.2080554826	 0.093633
H	 0.4396014069	 0.3102954172	 1.2695377525	 0.120469
H	-2.0655167593	 0.1315984782	 0.8314202985	 0.126632
H	-0.3985970622	-3.5542135322	-0.7310734098	 0.13075
H	 0.2606557882	-3.0518489899	 0.8611730417	 0.122521
H	-1.8171975054	-4.7471738084	 1.3553477916	 0.260858
