17
gdb 106016	3.35333	1.67915	1.45136	2.9875	69.9	-0.2388	0.0465	0.2853	922.96	0.137869	-417.899397	-417.892377	-417.891432	-417.931106	27.685	
O	 0.1145044377	 1.336893394	 0.0700291098	-0.429932
C	 0.0593827742	-0.0755542892	-0.0652887429	-0.178164
C	-1.353253744	-0.5614694893	-0.0195906333	 0.360064
C	-2.4374653242	-0.1220998633	 1.0116079576	-0.099077
N	-3.0164038621	 0.7841844298	-0.0101983028	-0.325989
C	-2.4976901156	-0.1770341307	-1.0123170323	-0.110078
C	-3.0023999367	-1.6098702357	-0.6905378353	-0.053949
C	-2.9591407173	-1.5701066192	 0.7952700672	-0.054808
N	-1.7547126009	-2.041813277	 0.0279331462	-0.213595
H	-0.7571421528	 1.6922084815	-0.1448310349	 0.29691
H	 0.5329165198	-0.4032866298	-1.0047416684	 0.098543
H	 0.6323609922	-0.5227660036	 0.7576594343	 0.112709
H	-2.2624710756	 0.2646036455	 2.0133434519	 0.091932
H	-4.0314941318	 0.8883806476	 0.0167473386	 0.215139
H	-2.3855695384	 0.152459464	-2.0440292359	 0.087101
H	-3.5867285144	-2.3015709075	-1.2844107547	 0.101562
H	-3.50678723	-2.2293418872	 1.4570980048	 0.101631
