18
gdb 11759	4.9857	1.26858	1.17764	0.8864	68.	-0.2486	0.0713	0.3199	1047.698	0.153519	-384.901043	-384.892926	-384.891982	-384.933496	30.662	
O	 0.2049357144	 1.3379778956	 0.1518575453	-0.414431
C	 0.066091136	-0.0506170631	-0.1259623421	-0.172862
C	-1.3628219187	-0.5007233612	-0.1132558015	 0.337399
C	-2.0769656112	-0.9254943542	 1.1444964618	-0.329738
C	-1.9353770896	-1.9193982606	 0.023481214	-0.116025
C	-2.9522430552	-1.6275958181	-1.0719204095	 0.125123
O	-4.2894386792	-1.8244599587	-0.6644213066	-0.432933
C	-2.4080551908	-0.1589843487	-1.1843438167	-0.331853
H	-0.2447258541	 1.5052223294	 0.9870639862	 0.281165
H	 0.5061650665	-0.1903680972	-1.1201507801	 0.105929
H	 0.6522781387	-0.6627977257	 0.5795990357	 0.083071
H	-1.4399550569	-1.1218234224	 2.0021450099	 0.107773
H	-3.0559493	-0.5249102136	 1.3906074295	 0.121637
H	-1.4129182359	-2.8589203812	 0.1585098059	 0.085851
H	-2.7312381579	-2.196453056	-1.9849233686	 0.070007
H	-4.8654070239	-1.5684803024	-1.3920515395	 0.282691
H	-3.1212812304	 0.6285409862	-0.9225652116	 0.095607
H	-1.9749801918	 0.0600382518	-2.1637502322	 0.101588
