19
gdb 67701	2.26203	2.01349	1.71499	1.0052	78.28	-0.2203	0.0163	0.2366	923.1439	0.161983	-385.891831	-385.884859	-385.883915	-385.92259	29.671	
O	-0.084483305	 1.3615845577	-0.0895182047	-0.474394
C	 0.0200377191	-0.0194588343	-0.0142955125	 0.388843
C	-1.1829172462	-0.8981321329	-0.0020139453	-0.082587
C	-1.0360295794	-1.9940117473	-1.0576736229	-0.231793
C	 0.219971914	-1.5712120428	-1.8638130224	-0.196373
C	 1.088947104	-0.8132187487	-0.8252018649	-0.158089
C	 1.6485874415	-1.796404206	 0.1861689081	-0.09128
C	 0.8912262234	-1.8466314322	 1.2870008147	-0.074162
C	-0.2187953635	-0.8564577893	 1.2213328718	-0.17889
H	 0.6527062842	 1.7448765995	 0.3989217433	 0.281823
H	-2.1553442317	-0.4551795903	 0.181855935	 0.090413
H	-0.8910110558	-2.9780172439	-0.6002713243	 0.104676
H	-1.926033223	-2.0592837639	-1.689412305	 0.097802
H	 0.7372949141	-2.4174584816	-2.3272748232	 0.090293
H	-0.0654802517	-0.8749250109	-2.6611873019	 0.101556
H	 1.8420258562	-0.1734426658	-1.2955685371	 0.06609
H	 2.4936182824	-2.4401343321	-0.030913963	 0.091183
H	 1.0377461926	-2.5193060806	 2.1245356363	 0.091814
H	-0.6315300051	-0.4154707146	 2.122526538	 0.083074
