20
gdb 116060	3.08877	1.11991	0.86912	3.3828	76.71	-0.2381	0.0231	0.2611	1326.7541	0.172185	-440.283029	-440.27406	-440.273116	-440.317168	33.05	
O	-0.1675471914	 1.4849556572	-0.0269371728	-0.422254
C	-0.0287643465	 0.0754835481	-0.1269285083	-0.09554
C	-1.4070640658	-0.5649004087	 0.0576530661	 0.007443
C	-1.3361898722	-2.0785055344	-0.1530636107	-0.226072
C	-2.7073729823	-2.751675495	-0.2776690291	-0.155279
N	-3.6246716298	-2.7148320619	 0.8459336511	-0.249449
C	-3.8610377164	-1.7233967688	 1.5860210876	 0.118992
O	-3.3342837014	-0.4710679293	 1.665487098	-0.231762
C	-1.944291538	-0.2189964637	 1.445910478	-0.065664
H	 0.7064693384	 1.8817305356	-0.0806401554	 0.290392
H	 0.3725880054	-0.2152717202	-1.1099446943	 0.092095
H	 0.6660540101	-0.3124844026	 0.6370037969	 0.087732
H	-2.0773030491	-0.1190382364	-0.6898598923	 0.091516
H	-0.77633771	-2.3020747715	-1.0707094973	 0.094244
H	-0.7775619907	-2.5379419133	 0.6740977921	 0.09947
H	-3.2324698241	-2.3144929835	-1.1408970706	 0.112748
H	-2.551723732	-3.8072622508	-0.5271533624	 0.105401
H	-4.6772585496	-1.7958633976	 2.3072744491	 0.11375
H	-1.3655325135	-0.7665226777	 2.2049722796	 0.097154
H	-1.8289371011	 0.8496938345	 1.6286621047	 0.135081
