18
gdb 14787	7.81918	0.6445	0.62055	1.5179	66.81	-0.2594	-0.031	0.2284	1733.3413	0.151052	-422.068015	-422.058418	-422.057474	-422.104194	32.	
O	-0.1433058117	 1.4326748224	 0.1055023775	-0.419518
C	 0.0332374275	 0.0416800582	-0.0705635987	-0.059706
C	-1.2992542337	-0.6905853195	-0.0818611506	-0.073975
O	-2.0474195849	-0.1589173976	-1.1634631732	-0.257902
C	-3.3711748757	-0.6402857364	-1.230587188	-0.057352
C	-4.0500315133	-0.0044775927	-2.4435460394	-0.281685
C	-5.5365927307	-0.2811016225	-2.4712024299	 0.153725
O	-6.1251916919	-0.7887130016	-3.3894611087	-0.229519
H	-0.7966040126	 1.6986581357	-0.5519399716	 0.287704
H	 0.5725668829	-0.1828566829	-1.004515	 0.096045
H	 0.6432540124	-0.3169833914	 0.7647712978	 0.111225
H	-1.1507385599	-1.7757162179	-0.2040901562	 0.0922
H	-1.830933524	-0.5190473351	 0.8675544059	 0.098049
H	-3.3770745735	-1.7383553618	-1.3211366091	 0.106414
H	-3.9187666453	-0.3874699273	-0.3063306099	 0.095978
H	-3.9130586477	 1.0836032217	-2.3702610005	 0.129526
H	-3.5993105373	-0.3491812203	-3.3767931678	 0.13344
H	-6.0792016908	 0.033440789	-1.5483739677	 0.07535
