18
gdb 32950	4.11432	0.87041	0.73967	0.5356	77.76	-0.1795	0.0492	0.2287	1521.9009	0.14731	-439.105211	-439.095967	-439.095023	-439.139845	33.482	
C	-0.6395929689	 1.3136353201	 0.6599682565	-0.220927
O	-0.643711652	-0.0934395241	 0.6985241046	-0.241622
C	-0.6659977548	-0.6770521267	-0.5985987129	-0.192849
C	-0.7522423279	-2.1531719722	-0.467255475	 0.300436
C	-0.073461381	-3.173396979	-1.0829623701	-0.224091
C	-0.6162443579	-4.4145323859	-0.6228101387	-0.295102
C	-1.6073233641	-4.0904142992	 0.2731933668	 0.369387
O	-2.4433332279	-4.8295115909	 1.0464528019	-0.435768
N	-1.7085527571	-2.7336368783	 0.3526509689	-0.331309
H	-0.6465655147	 1.6700250238	 1.6929452451	 0.12651
H	 0.2573482751	 1.7065855894	 0.1554937452	 0.105129
H	-1.5250002589	 1.712725307	 0.1388223498	 0.101739
H	-1.5267817046	-0.2630219543	-1.1567811511	 0.089071
H	 0.2399451768	-0.4161327777	-1.1678340688	 0.100597
H	 0.7200852102	-3.0513350047	-1.8048416292	 0.089762
H	-0.3165586687	-5.409465668	-0.913387447	 0.084431
H	-2.2118379267	-5.7565502654	 0.937120161	 0.306743
H	-2.2557505768	-2.2360742038	 1.034329443	 0.267861
