14
gdb 132994	4.1098	1.11326	0.88072	1.8932	71.43	-0.232	-0.0384	0.1937	1220.5578	0.100475	-477.991431	-477.983731	-477.982787	-478.024152	27.857	
C	 0.0056922343	 1.4400898766	-0.1089581973	-0.330659
N	-0.0069538606	-0.0082042776	-0.1223891068	-0.307678
C	-1.0939168525	-0.6460108272	 0.0571659999	 0.380595
C	-1.1120241596	-2.1083414387	 0.0444817806	-0.397459
C	-2.2704353443	-2.7357339318	 0.2363489266	 0.401237
F	-2.4434401046	-4.0350130629	 0.2519863905	-0.035541
O	-3.4513546767	-2.1098762569	 0.4456101654	-0.206951
C	-3.382905564	-0.7360671483	 0.4487358851	 0.126106
N	-2.3574705654	-0.0223414043	 0.2806029245	-0.301621
H	 0.7047457572	 1.7795609319	 0.6652621028	 0.124131
H	 0.4072925779	 1.798214825	-1.0648909398	 0.124135
H	-0.9713563069	 1.9032378948	 0.0639897956	 0.126788
H	-0.1989956865	-2.6621755011	-0.1180667342	 0.140626
H	-4.3719833284	-0.3243849094	 0.6228035071	 0.156292
