15
gdb 18033	3.93971	2.23572	1.56578	2.2915	61.63	-0.2539	0.0096	0.2635	789.7625	0.121078	-399.774852	-399.768539	-399.767595	-399.805364	24.066	
C	-0.0435542684	 1.3982036196	-0.0737625345	-0.130921
O	 1.2907149694	 1.5399381976	 0.5419323109	-0.269453
C	 1.3185017206	 0.1904354565	 0.7750054502	 0.414961
N	 1.911555912	-0.485621955	 1.6503909441	-0.307192
C	 1.311470467	-1.8393684446	 1.6499600012	-0.186103
C	-0.2241191209	-1.7421816979	 1.6213084207	-0.072616
O	-0.7436527041	-1.0589759727	 0.4637395482	-0.278326
C	 0.1563648428	-0.1457593469	-0.1054182665	-0.008429
H	-0.8196174758	 1.7357898433	 0.6167103531	 0.136036
H	-0.0966952009	 1.9222068339	-1.029086397	 0.127699
H	 1.671451338	-2.4375104806	 0.801627154	 0.114672
H	 1.6157208315	-2.3572609729	 2.563693697	 0.119718
H	-0.676340547	-2.738292882	 1.6060489981	 0.115296
H	-0.5579351605	-1.2223959151	 2.5299845041	 0.110453
H	 0.4403638364	-0.4776261533	-1.1113838934	 0.114207
