12
gdb 130675	2.46692	1.8079	1.11456	0.5711	65.15	-0.2633	-0.1014	0.1618	989.523	0.078256	-468.816724	-468.809685	-468.808741	-468.848573	25.805	
O	 0.0759308068	 0.0820148044	 0.7376087797	-0.317358
C	 0.0293977133	 1.2085924101	 0.3042040689	 0.374027
N	-1.1908626904	 1.8277029976	 0.0287244126	-0.370394
C	-1.4945153854	 3.1602532784	-0.2547336509	 0.374157
O	-2.5795464126	 3.4782969723	-0.6798726908	-0.317366
C	-0.5033665232	 4.1774176768	 0.2348187536	-0.037006
N	 0.7689046488	 4.1283515172	 0.3133188191	-0.139806
N	 1.517221146	 3.1596597038	-0.2979299962	-0.139757
C	 1.2531586405	 1.9150749378	-0.2056227862	-0.037012
H	-1.9921206764	 1.204065579	 0.0357017706	 0.279368
H	-0.9840575363	 5.0625763871	 0.6477570835	 0.165564
H	 1.9883464103	 1.2280467736	-0.6210550238	 0.165583
