14
gdb 14806	2.54205	2.19116	1.32061	4.6547	67.5	-0.2555	0.0052	0.2607	904.1449	0.107209	-341.530357	-341.52276	-341.521816	-341.562548	27.476	
C	-0.1038201933	-1.2543603028	-0.0963157489	-0.457932
C	-0.0804490539	-0.0552420698	-0.0264332507	 0.366392
C	-0.0596019462	 1.3875447117	 0.0570356243	-0.216505
C	-0.0918660133	 1.9863177362	 1.5007562416	-0.169289
N	 1.3669362821	 2.2110335273	 1.4235904423	-0.290804
C	 1.3584816889	 2.074510087	-0.0437567763	-0.138168
C	 2.4735341961	 1.3211095048	-0.6150106322	 0.317439
N	 3.3578812498	 0.7463772382	-1.0865119241	-0.321852
H	-0.1112565486	-2.3144395503	-0.1609181589	 0.208605
H	-0.7876706903	 1.8217722366	-0.6309797962	 0.121236
H	-0.7002413473	 2.8992543302	 1.5463660839	 0.103069
H	-0.3981788044	 1.3048758954	 2.2975722409	 0.130286
H	 1.7118539989	 3.0966304169	 1.7753584188	 0.232637
H	 1.2724594016	 3.0225604783	-0.5937342644	 0.114887
