18
gdb 70283	4.01691	1.10364	0.99353	3.9548	73.24	-0.2416	0.0265	0.2681	1197.8865	0.148468	-439.102289	-439.094119	-439.093175	-439.135173	31.2	
O	-0.1184392468	 1.391632614	-0.465877127	-0.46561
C	-0.1029470087	 0.0844939337	 0.0096690785	 0.390504
C	-0.2369862008	-1.0821457049	-0.9326762555	-0.350404
C	-1.3664906324	-0.7347815241	 0.0196998269	-0.09151
C	-1.420421666	-1.5009609098	 1.3292911985	-0.180647
N	-0.0638962674	-1.3500984972	 1.8651285988	-0.051311
C	 0.6089104853	-0.1702004184	 1.3355108951	-0.251038
C	 0.515543206	-2.2909591314	 2.6534965496	 0.144798
O	-0.037500465	-3.2901927488	 3.0656277755	-0.340478
H	 0.6917717453	 1.5418097604	-0.9649064746	 0.287861
H	-0.4016878791	-0.8328073778	-1.9749234915	 0.120656
H	 0.3439559566	-1.9831804725	-0.7587476668	 0.122205
H	-2.2812403172	-0.3264884903	-0.3908962513	 0.105682
H	-2.1663805367	-1.0616512449	 2.005108193	 0.117591
H	-1.6434421202	-2.5661967698	 1.2309110961	 0.141126
H	 1.6846330149	-0.3551029566	 1.239116706	 0.113333
H	 0.46706574	 0.7146388232	 1.9722818646	 0.118386
H	 1.5720909222	-2.0456354648	 2.883261564	 0.068857
