17
gdb 34716	5.21777	1.2302	1.12721	0.6722	83.2	-0.2234	0.0013	0.2246	1080.5518	0.136625	-347.461036	-347.454147	-347.453202	-347.49206	28.643	
C	-0.0762426978	-1.2535253402	-0.1298597777	-0.439101
C	-0.0392475818	-0.0530279631	-0.0578437799	 0.302567
C	-0.0067620802	 1.3935382302	 0.0170666523	-0.207988
C	 0.0273190996	 2.0856969795	 1.4128644867	-0.039748
C	 1.5410139548	 1.6882396558	 1.5925115448	-0.067491
C	 2.2145726998	 2.8476511948	 2.3080603978	-0.107199
C	 1.650190218	 3.9302520057	 1.7681519216	-0.115349
C	 0.6672880363	 3.3641522078	 0.7566740678	-0.075134
C	 1.3678520057	 2.1241569927	 0.0886804565	-0.039751
H	-0.1089482255	-2.3128246506	-0.1932975481	 0.18995
H	-0.7172498513	 1.8362447709	-0.6893332039	 0.091288
H	-0.751737596	 2.0600986317	 2.1790101468	 0.077152
H	 1.8038136094	 0.6587441148	 1.8286544317	 0.080233
H	 2.973363669	 2.7731021906	 3.0740556729	 0.104472
H	 1.8228409867	 4.9772382961	 1.9733417432	 0.105058
H	 0.0496650651	 4.0283889461	 0.1507179023	 0.063889
H	 2.1435947184	 2.1431655472	-0.6810114849	 0.077152
