18
gdb 126554	6.3747	0.75705	0.68524	3.4185	74.41	-0.219	0.0244	0.2434	1621.8986	0.148617	-435.325054	-435.315945	-435.315001	-435.360287	32.564	
C	-0.0105636949	 1.5819620199	 0.0237731334	-0.390063
C	 0.0042870703	 0.052600788	-0.0196553662	-0.151138
C	 0.7147088501	-0.5546556636	 1.1952031793	-0.313177
C	 0.748217651	-2.0482047671	 1.1862159914	 0.412014
N	 0.2404477035	-2.8095173865	 0.2647822811	-0.267505
N	 0.5154454899	-4.092733921	 0.6872731903	-0.300638
C	 1.2004582764	-4.1613914997	 1.8806997231	 0.458325
O	 1.585497346	-5.122199369	 2.5100973003	-0.422996
N	 1.337124645	-2.7986761186	 2.1805878445	-0.40621
H	 1.0056975974	 1.991771452	 0.0380903936	 0.115073
H	-0.5216321665	 1.993804017	-0.8512684868	 0.119217
H	-0.528885653	 1.9519479691	 0.9156193172	 0.115072
H	-1.0184235926	-0.3353125286	-0.0653497051	 0.119153
H	 0.4980257052	-0.295965738	-0.9324682877	 0.119131
H	 1.7463148306	-0.178626818	 1.2521070112	 0.120213
H	 0.2266350983	-0.2179209298	 2.1210832665	 0.120207
H	 0.2212892996	-4.8798093343	 0.1372985601	 0.279591
H	 1.8009821137	-2.4659515418	 3.0078793239	 0.273732
