17
gdb 95421	2.89714	1.27193	0.91856	5.9547	76.4	-0.2748	-0.044	0.2309	1243.5163	0.13682	-418.039981	-418.031672	-418.030727	-418.073053	30.721	
C	 0.0382434857	 1.5128942854	 0.1262456985	-0.406668
C	 0.0064847918	 0.0041670575	-0.0340363986	 0.134309
C	 0.7400672716	-0.5225704881	-1.2637796634	-0.236327
C	 0.7574064757	-2.05361698	-1.2294858661	-0.175114
N	 1.1213978594	-2.5954218168	 0.075398575	-0.299001
C	 1.0374571791	-1.828941967	 1.0797707405	 0.289078
O	 0.6082905371	-0.5497323761	 1.1653506014	-0.26978
C	 1.4482725258	-2.3184991089	 2.3816797307	 0.297351
N	 1.7767755448	-2.707082635	 3.4186623209	-0.319966
H	 1.0696765972	 1.876490044	 0.1500550808	 0.133718
H	-0.4806086349	 1.9881221271	-0.7113574328	 0.125979
H	-0.4550902398	 1.8105627469	 1.0549535895	 0.138612
H	-1.0340641749	-0.348540472	-0.0512601515	 0.099531
H	 0.2530840235	-0.1547986228	-2.1722267737	 0.113187
H	 1.7654163219	-0.1344030203	-1.2592662157	 0.120456
H	-0.2250983059	-2.4620154908	-1.5012681735	 0.126732
H	 1.4644982319	-2.4542733928	-1.9630835518	 0.127903
