21
gdb 90616	3.85885	1.17123	1.09292	1.1963	81.9	-0.2313	0.0796	0.3109	1201.5778	0.182336	-387.036296	-387.027934	-387.02699	-387.068665	33.789	
C	-0.1058270993	 1.5295759844	 0.0118960461	-0.414207
C	-0.0086112203	 0.0086719497	-0.0031301731	 0.029138
C	 1.0812720381	-0.5778804214	-0.9678550349	-0.272123
C	 1.829411325	-1.1929067686	 0.2499091	-0.087386
C	 0.7552641272	-0.6117461769	 1.2145599784	-0.011473
C	 0.4200065229	-2.0410887627	 1.6957118728	-0.129863
C	 0.0165281027	-2.9507207121	 0.5503273228	-0.36073
C	 1.464680712	-2.6158609742	 0.7433867291	 0.393993
O	 2.416488832	-3.5855699562	 1.0136573881	-0.465268
H	 0.8754827042	 1.9876521711	 0.1839686932	 0.111793
H	-0.4868340987	 1.912833611	-0.941399588	 0.111471
H	-0.777226176	 1.8758073431	 0.805853749	 0.112469
H	-1.006147597	-0.4156929939	-0.1536445591	 0.068927
H	 0.730373622	-1.2859187435	-1.7243233722	 0.09223
H	 1.6555353887	 0.2030804461	-1.4748331436	 0.094778
H	 2.8861752788	-0.9601682234	 0.3815220142	 0.072311
H	 1.034743792	 0.0777384094	 2.0128374565	 0.062686
H	 0.1887730792	-2.3149561693	 2.7183144376	 0.089064
H	-0.2350352004	-3.9562455058	 0.8745959402	 0.11061
H	-0.5688912419	-2.5997702688	-0.2943654078	 0.108805
H	 2.4824907088	-4.1670984182	 0.248128841	 0.282774
