23
gdb 64360	1.86531	1.76985	1.47201	1.9805	80.38	-0.241	0.0661	0.3072	1098.176	0.203962	-425.443336	-425.433357	-425.432413	-425.477074	39.074	
C	 0.3651243451	 1.5153733652	-0.31459689	-0.454393
C	-0.0517078563	 0.078047461	 0.0114575114	 0.374845
O	-1.456032239	 0.0147791912	 0.2348570541	-0.480787
C	 0.437277131	-0.8983544268	-1.0916761112	-0.3058
C	 1.7865245626	-1.4207336066	-0.5533073031	-0.076856
O	 1.9566686376	-0.8608336216	 0.7491278418	-0.295377
C	 0.673703224	-0.4963330491	 1.2701409939	 0.354049
C	 0.9087341187	 0.5087673785	 2.3936431951	-0.441308
C	-0.0574799862	-1.7311173273	 1.8246122217	-0.422516
H	 1.4515634499	 1.5995852536	-0.4078763924	 0.133297
H	-0.0745314901	 1.8223717966	-1.2716713576	 0.10029
H	 0.0236364381	 2.2115796592	 0.4551709889	 0.124329
H	-1.8934664793	 0.4811268266	-0.4843882424	 0.276902
H	-0.2943127486	-1.7016801988	-1.2034270729	 0.111055
H	 0.5403805889	-0.4036736476	-2.0612870747	 0.094704
H	 1.8026740283	-2.5183674617	-0.5073848404	 0.095364
H	 2.6403506704	-1.1015043554	-1.1593884744	 0.102622
H	 1.5620954606	 1.321297982	 2.0707028544	 0.118384
H	-0.0443885013	 0.9286464468	 2.7288658643	 0.122784
H	 1.3835879396	 0.0142322271	 3.2456989464	 0.117262
H	 0.562677239	-2.1930676042	 2.5981278192	 0.112107
H	-1.019139614	-1.4495342576	 2.2582305528	 0.129511
H	-0.2513346191	-2.4792887112	 1.0515571149	 0.109533
