16
gdb 51078	3.36676	1.27132	1.0751	0.4343	70.47	-0.2547	0.0014	0.2561	1107.1465	0.124459	-437.877403	-437.869465	-437.868521	-437.910635	29.289	
O	 0.2290441466	 1.5360449978	-1.5421156961	-0.315724
C	 0.0122794137	 1.5194345718	-0.3508227033	 0.132316
N	 0.9305027044	 1.1680553475	 0.5963012965	-0.447482
C	 2.2523814766	 0.7800700885	 0.2812544814	 0.307436
C	 2.754646352	-0.4426319231	-0.5728121625	-0.265218
C	 4.0794160101	 0.2389303411	-0.0857761111	-0.178021
C	 3.3900023622	 1.604297022	-0.4281350914	-0.265242
C	 3.3537148587	 0.3689270878	 1.2614283979	 0.409407
O	 3.5128777786	 0.2367208788	 2.4358873159	-0.333964
H	-0.9632369821	 1.7906878448	 0.0975050064	 0.085455
H	 0.664086055	 1.1823353297	 1.5699682852	 0.262808
H	 2.5316593734	-1.4430929594	-0.1983931738	 0.115344
H	 2.5519146945	-0.3386907376	-1.6389876389	 0.135633
H	 5.0992169077	-0.0624385106	-0.3002174681	 0.10628
H	 3.2066491042	 1.7705933146	-1.4899112435	 0.135629
H	 3.7550328744	 2.4982794465	 0.0801787054	 0.115344
