16
gdb 41186	3.15053	1.8479	1.69099	2.5246	68.88	-0.2377	0.005	0.2427	850.9206	0.126071	-437.767737	-437.761522	-437.760578	-437.79797	25.999	
C	 0.066404531	 1.5641295624	-0.1823200682	-0.170883
O	 1.5257236629	 1.4471186093	 0.1006749099	-0.327413
C	 1.1630564347	 0.2973655834	 0.9289340475	 0.138593
C	 1.2599682502	-1.2590485257	 1.1426370628	 0.017232
C	-0.3560468808	-1.1245409389	 1.1190336753	-0.349701
C	-0.0535997475	 0.0403849644	 0.109865858	 0.23566
N	 0.2697878076	-0.6261491715	-1.1726452384	-0.262431
C	 1.1130469716	-1.5636575545	-1.1152514351	 0.113516
O	 1.7154053749	-1.9949113866	 0.0222671147	-0.215474
H	-0.4093250846	 2.235633029	 0.5401694102	 0.108394
H	-0.1149758325	 1.8661353106	-1.2150264783	 0.131039
H	 0.913770847	 0.6889511058	 1.9247846702	 0.086112
H	 1.7640202592	-1.6669949459	 2.0180972631	 0.104358
H	-0.8992524573	-1.9899673427	 0.7348034544	 0.12641
H	-0.7418742627	-0.8149066382	 2.0893671801	 0.125975
H	 1.4281212264	-2.1349206709	-1.9835614363	 0.138612
