20
gdb 70825	2.29391	1.70179	1.44861	1.6114	79.55	-0.2278	0.0703	0.298	1052.196	0.1685	-403.061585	-403.052574	-403.05163	-403.094455	34.797	
C	 0.050971871	 1.4535061845	-0.1005397533	-0.537391
C	 0.0298099263	-0.0428041822	-0.0683964291	 0.255008
N	 0.6646183771	-0.9288893552	-1.1045443045	-0.406619
C	 0.0769645571	-1.919477351	-0.1375222072	 0.255009
C	 0.1730826162	-3.4064252569	-0.2795522978	-0.537391
C	 0.4379498087	-1.0149177347	 1.076362722	 0.024737
O	-0.8872981217	-1.0703198334	 1.6764354773	-0.366421
C	-1.1654696955	-1.0243838792	 0.2395692248	 0.376288
C	-2.5815722822	-1.0424215678	-0.2368061271	-0.534442
H	 1.0779145881	 1.8259018951	-0.1672359185	 0.134617
H	-0.5073299949	 1.8421188073	-0.9595988828	 0.119759
H	-0.4067347953	 1.8493971007	 0.8116834584	 0.136761
H	 0.1150106691	-0.9108505582	-1.9691787053	 0.199109
H	 1.2172827042	-3.7209342654	-0.3715767943	 0.134617
H	-0.2624837282	-3.8907683402	 0.6002601614	 0.136761
H	-0.36663552	-3.7583382062	-1.165873357	 0.119758
H	 1.3138768767	-1.0167708456	 1.7242053642	 0.093391
H	-3.1340784326	-0.1824244354	 0.1546226815	 0.137085
H	-2.6131438608	-1.0028339664	-1.3311367932	 0.122281
H	-3.0894904532	-1.9555581496	 0.0891931604	 0.137083
