18
gdb 89268	2.4916	1.82556	1.33421	3.4507	70.71	-0.2201	0.0494	0.2695	984.3021	0.147007	-438.995101	-438.987145	-438.9862	-439.026931	31.936	
O	 0.1442023366	 1.3891873279	-0.2709437074	-0.418051
C	 0.0391973179	 0.0100636919	-0.0056518879	 0.112978
C	 0.2892982811	-0.5174338954	 1.4545024561	-0.369666
C	-1.1367140988	-1.1482000856	 1.4314992444	 0.416555
O	-1.2652093885	-2.5232242505	 1.6306718497	-0.484343
C	-2.3097235815	-0.2761663271	 1.9332597158	-0.114528
C	-2.1641570638	 1.1553266412	 1.6209335978	-0.246644
N	-2.5869047245	 0.254392488	 0.527281461	-0.143337
C	-1.4067908318	-0.5615320531	 0.0321518883	-0.042351
H	 1.0785489849	 1.6145941645	-0.3204986753	 0.287937
H	 0.6324370605	-0.5698413093	-0.7258423794	 0.08195
H	 1.0775611424	-1.2717898012	 1.5158654298	 0.103258
H	 0.462155111	 0.2555771095	 2.2075863452	 0.099418
H	-1.1496115493	-2.7050167577	 2.5704776951	 0.279761
H	-3.1149364146	-0.6752181272	 2.5448425382	 0.093136
H	-2.9789088189	 1.8043919393	 1.9318221522	 0.118763
H	-1.1986264454	 1.6421249439	 1.5759947462	 0.135918
H	-1.7177119972	-1.1775209192	-0.81068334	 0.089247
