16
gdb 74590	2.60914	2.11998	1.43385	1.8601	73.86	-0.2416	-0.0239	0.2176	916.2721	0.125508	-396.893266	-396.886241	-396.885297	-396.924548	27.786	
C	 0.0320720013	 1.4683327289	 0.1039449357	-0.487012
C	-0.0370092696	-0.012932265	-0.0036745923	 0.319478
N	 0.0580023458	-0.7011696002	-1.0723572137	-0.242034
C	 0.0047468019	-2.0873489226	-0.6438734469	-0.021177
C	-0.5510083616	-2.1627352621	 0.720724743	-0.045026
C	 0.919970009	-2.5449569301	 0.540821005	-0.158194
C	 1.2360494636	-1.374385044	 1.3768483672	 0.40064
N	 2.2162836793	-1.0178616743	 2.0743868945	-0.548564
N	-0.1454661423	-0.8019445467	 1.232852464	-0.246204
H	 0.8852544921	 1.7642344638	 0.7245827267	 0.143962
H	 0.1385671031	 1.91379541	-0.8854780678	 0.152024
H	-0.8677765213	 1.853842561	 0.5941005842	 0.146971
H	-0.1899939832	-2.8406944573	-1.3962510373	 0.116151
H	-1.3847021664	-2.7072039748	 1.1434444611	 0.1205
H	 1.4050572268	-3.510897653	 0.5307883238	 0.119255
H	 2.0070767516	-0.1609444236	 2.5899041129	 0.229228
