20
gdb 32723	2.93109	1.00337	0.79649	1.8735	82.96	-0.1923	0.0491	0.2415	1454.3302	0.170983	-403.187261	-403.177453	-403.176509	-403.223044	35.284	
C	-0.1270306454	 1.5628417456	 0.1879247921	-0.508674
C	-0.0341700152	 0.0694528162	 0.0787332621	 0.209577
C	 0.0306291746	-0.6756886234	-1.0850060194	 0.193854
C	 0.0552328579	-0.269434841	-2.5238262709	-0.305854
C	 1.4719883871	-0.104085565	-3.0834910501	-0.059251
O	 1.3564750485	 0.2435199039	-4.4543468825	-0.419016
N	 0.12195959	-2.0021070675	-0.716705591	-0.289744
C	 0.1059983947	-2.1181598652	 0.6489763637	-0.093509
C	 0.0119495224	-0.8509755355	 1.1693809584	-0.22512
H	 0.807046807	 2.0081798265	 0.5527961984	 0.121245
H	-0.3498195792	 2.0265492935	-0.7778700112	 0.117486
H	-0.9161578273	 1.864123736	 0.8861048609	 0.121998
H	-0.4723655831	-1.0055839533	-3.1438259906	 0.103299
H	-0.4768950866	 0.6779094039	-2.6551579537	 0.121035
H	 2.0008543207	 0.6722644127	-2.5099243066	 0.094283
H	 2.0327788828	-1.0437760625	-2.9521763096	 0.080756
H	 2.239821466	 0.3920876319	-4.8037569044	 0.286194
H	 0.1500299375	-2.7713709558	-1.3629526658	 0.254165
H	 0.1526409546	-3.0833032294	 1.12733613	 0.1121
H	-0.0260042168	-0.5989658617	 2.2189351001	 0.085175
