21
gdb 66182	3.38178	1.14022	1.10275	1.6679	83.62	-0.242	0.0193	0.2614	1217.9805	0.182835	-387.081055	-387.072396	-387.071451	-387.114496	33.456	
C	 0.1583106837	 1.362912837	 0.2051148793	-0.457133
C	-0.0979742402	-0.1553740903	 0.1427697554	 0.265592
C	 0.5085708706	-0.7850015097	-1.154527253	-0.258699
C	 1.8644201632	-1.4115460153	-0.74131628	-0.260662
C	 1.735796534	-1.5403516733	 0.7572741776	-0.074671
C	 0.6833830972	-0.8770095088	 1.2295072296	-0.104228
C	-1.5818847115	-0.4835485591	 0.2420390864	 0.058397
C	-2.5966969054	 0.3592945536	 0.888235562	-0.194264
O	-2.4976288616	 0.292035479	-0.5369360015	-0.246002
H	 1.2002121118	 1.5791036163	-0.0473278611	 0.114512
H	-0.4903835297	 1.8886630879	-0.5016123315	 0.134272
H	-0.0236380855	 1.7636536975	 1.2076033617	 0.109124
H	-0.1578911775	-1.5725108525	-1.5205055504	 0.103303
H	 0.6031364248	-0.0496418267	-1.9573020558	 0.103495
H	 2.047088341	-2.3713571178	-1.2377257056	 0.104285
H	 2.7170378788	-0.7691715283	-1.0022135532	 0.107282
H	 2.4550784893	-2.0811693014	 1.3632213927	 0.093478
H	 0.4096169322	-0.7926437196	 2.2764935793	 0.088895
H	-1.7870668338	-1.5561213379	 0.2078276285	 0.087618
H	-3.4844415642	-0.1050828528	 1.3162569455	 0.112179
H	-2.320651287	 1.3153492721	 1.3273407939	 0.113227
