18
gdb 18024	4.16498	1.52303	1.39549	2.619	66.93	-0.2444	0.0622	0.3066	949.2332	0.154714	-384.898742	-384.891318	-384.890374	-384.930858	28.168	
O	-0.0406343129	 1.3107366897	-0.4487094303	-0.42245
C	 0.0702838787	-0.0561398069	-0.0933596218	-0.07783
C	-1.3046267569	-0.6272520849	 0.1996648419	 0.127297
O	-2.1740475593	-0.4851439334	-0.9623993536	-0.33006
C	-2.5647340166	-1.8741449436	-0.8937420127	 0.134577
C	-1.7378195482	-2.7865523207	-1.8285466715	-0.230966
C	-0.7490905272	-3.073442742	-0.6532909588	-0.238833
C	-1.5789417004	-2.145129892	 0.2785864465	-0.115208
H	-0.6936266186	 1.3471001461	-1.1584208932	 0.294065
H	 0.5627431932	-0.6322867312	-0.8904692061	 0.085779
H	 0.7023451136	-0.1073703314	 0.8005053724	 0.107005
H	-1.7392338356	-0.0806766692	 1.0480775082	 0.083874
H	-3.6505777499	-1.9941256973	-0.8568314471	 0.077543
H	-2.2744728753	-3.6719624257	-2.1795097127	 0.103274
H	-1.3271057871	-2.256891717	-2.6908435696	 0.110751
H	-0.7784137665	-4.1140123771	-0.3225278008	 0.107189
H	 0.2967804087	-2.8040589931	-0.8128116415	 0.107133
H	-1.8690922097	-2.5362143105	 1.2526725509	 0.07686
