17
gdb 5063	3.25914	1.95546	1.24328	1.5514	71.98	-0.1855	0.037	0.2225	970.6225	0.14177	-363.899495	-363.890877	-363.889933	-363.932416	31.253	
C	 0.1196420494	 1.4907198968	-0.0315827475	-0.492284
C	-0.0516230141	 0.0132190441	-0.0409273995	 0.278698
C	-1.1416363495	-0.8034646789	 0.0435813286	 0.126637
C	-2.5833996765	-0.433273336	 0.1961935583	-0.520454
C	-0.6306983887	-2.1519129114	-0.0299308961	 0.136701
N	-1.4194387575	-3.3062654856	 0.1052233246	-0.604809
C	 0.7194098507	-2.0437328091	-0.154126509	-0.109068
O	 1.0861124479	-0.7226649927	-0.1549252711	-0.19136
H	 0.7894416479	 1.8091269102	 0.7753719003	 0.136626
H	 0.5491495522	 1.8532029544	-0.9730966921	 0.134833
H	-0.8434671786	 1.9851349556	 0.1120090539	 0.129958
H	-3.1801762983	-0.7330814233	-0.6758209974	 0.118001
H	-3.0285465844	-0.9224664376	 1.0706993369	 0.135016
H	-2.7121779306	 0.6454418307	 0.3171719607	 0.124536
H	-2.2878735596	-3.2431542077	-0.4122902613	 0.241773
H	-0.9321842738	-4.1474239696	-0.1765208648	 0.240784
H	 1.5202282135	-2.75942183	-0.2323719343	 0.114412
