14
gdb 81720	3.2892	1.31581	1.04003	4.9751	69.02	-0.2708	-0.0593	0.2115	1110.1458	0.099038	-436.667279	-436.659148	-436.658204	-436.700211	29.245	
C	 0.0021574585	 1.6331515356	-0.0866290671	-0.415353
C	 0.0338827075	 0.1133339541	-0.0111989777	-0.139662
C	 0.6944560067	-0.6724815351	-1.1587550626	-0.054446
O	 2.0642654014	-0.3011678091	-1.1789064395	-0.254474
C	 1.6746155068	-1.3501476217	-0.2605884814	 0.210573
C	 2.3161979298	-2.6211528982	-0.3358589226	 0.193029
N	 2.8172508672	-3.6631285513	-0.3419756462	-0.328742
C	 1.0602273406	-0.585847537	 0.935048533	 0.364493
O	 1.2291055663	-0.6119636393	 2.1107172033	-0.268332
H	 0.9719678379	 2.0221048959	-0.4056409127	 0.146016
H	-0.7616949426	 1.9758440067	-0.7910192083	 0.130925
H	-0.2310865864	 2.0525337281	 0.8960814366	 0.146222
H	-0.953029692	-0.2994498729	 0.234907329	 0.12441
H	 0.2608671683	-1.0719671658	-2.0674627339	 0.145341
