20
gdb 65115	3.39904	1.1285	0.97199	2.3897	81.85	-0.2219	0.0212	0.2431	1275.2351	0.171215	-403.124822	-403.116049	-403.115104	-403.158718	32.728	
C	-0.1662595179	 1.4580963332	-0.3998637274	-0.478513
C	-0.02420164	-0.0071053626	-0.0256368249	 0.202561
C	 0.8886747056	-0.8533328743	-0.8555253617	-0.265055
N	 1.2642605972	-0.4733983611	 0.5163749757	-0.338434
C	-1.2193046548	-0.6374011039	 0.5948023464	 0.277383
C	-1.2655910466	-1.4350935721	 1.6585007223	-0.21963
C	-2.675388719	-1.878324763	 1.9111029572	-0.104043
O	-3.4543228798	-1.2579452178	 0.8881950776	-0.26829
C	-2.6174919062	-0.4768656496	 0.0444455102	-0.159692
H	 0.7492534297	 1.827402981	-0.8731077291	 0.112472
H	-0.9897529118	 1.6152336382	-1.1044370123	 0.131441
H	-0.3653981078	 2.070688851	 0.486339378	 0.130029
H	 0.6676530897	-1.9081016787	-0.989371863	 0.121501
H	 1.4013972188	-0.3814820634	-1.6906114839	 0.109419
H	 1.9402022709	 0.2865121671	 0.4924805105	 0.228271
H	-0.4160639003	-1.7337297828	 2.2572049978	 0.116189
H	-2.7912222978	-2.9728834238	 1.8543265205	 0.102807
H	-3.0463572519	-1.5684479974	 2.9014728404	 0.102511
H	-2.9573700699	 0.5714274026	 0.0523982975	 0.099283
H	-2.6968442581	-0.8302784326	-0.9973225719	 0.099791
