19
gdb 68011	2.76681	1.5964	1.21681	2.8861	75.66	-0.2275	-0.0143	0.2132	1076.6104	0.157617	-423.04235	-423.0338	-423.032856	-423.074991	33.244	
C	 0.0521834894	 1.4918394989	 0.0959428324	-0.492159
C	-0.008140339	-0.0031972594	-0.0319035537	 0.410742
C	 0.6115541365	-0.7924475217	-1.2123911933	-0.325621
C	 0.7411621706	-1.8463122911	-0.0825388472	 0.297329
C	 1.7542330019	-2.946075189	-0.0129577165	-0.505797
O	 0.9009377626	-0.735856345	 0.8709404538	-0.360797
C	-0.7434949814	-2.1679724509	 0.1878784585	 0.421514
O	-1.2732176713	-3.2349385216	 0.3260484175	-0.32961
C	-1.3352396392	-0.7437106539	 0.2443887077	-0.380928
H	 1.0694717735	 1.8538091502	-0.0768480453	 0.128868
H	-0.615005317	 1.9630419553	-0.633040227	 0.125565
H	-0.2613510932	 1.8047091332	 1.0969868674	 0.132965
H	-0.003393634	-1.0158555974	-2.0889809967	 0.104533
H	 1.5895660931	-0.4001100411	-1.4985087171	 0.11307
H	 2.760438496	-2.5710097428	-0.2160727265	 0.125461
H	 1.7430092076	-3.4072057686	 0.9790616013	 0.142273
H	 1.5083714368	-3.7221121108	-0.744013767	 0.137274
H	-1.7367285495	-0.513170709	 1.2347101807	 0.13296
H	-2.1204704229	-0.5959468853	-0.5028855888	 0.122359
