16
gdb 8666	2.31606	1.76452	1.55032	3.3863	61.98	-0.2547	-0.0659	0.1888	938.4677	0.12536	-420.888171	-420.878643	-420.877699	-420.922865	32.495	
C	 0.4593081218	-0.8370997233	 1.2811085141	-0.404256
C	 0.0166671974	-0.0951812925	 0.0182215934	-0.211973
C	 0.8736698684	-0.4080344601	-1.2197886932	 0.158385
O	 2.2684511638	-0.2025509913	-1.0428597072	-0.462655
C	 0.7477469936	-1.8910038426	-1.6095457547	 0.147459
O	-0.2937022069	-2.4855115255	-1.6495854672	-0.235701
C	 0.3976201596	 0.4247088032	-2.4269315536	 0.116135
O	-0.7330739856	 0.7829429257	-2.6077425893	-0.22755
H	 0.3428645842	-1.9190724804	 1.1686725374	 0.135795
H	 1.5083304715	-0.6347143575	 1.5157139121	 0.119108
H	-0.1465212561	-0.5250835058	 2.1362184285	 0.122532
H	-1.0144371327	-0.3438673677	-0.2458329975	 0.14994
H	 0.0399081522	 0.9896009823	 0.1837621279	 0.097729
H	 2.4053440368	 0.676036683	-0.6729309851	 0.292649
H	 1.7247193731	-2.359077214	-1.8549428088	 0.106436
H	 1.2302245989	 0.6816636968	-3.1196991468	 0.095967
