19
gdb 89360	2.48562	1.57676	1.31813	2.5403	75.03	-0.2424	-0.0107	0.2317	1070.4572	0.158261	-423.031243	-423.02265	-423.021706	-423.064168	32.732	
C	-0.1313982772	 1.5356192789	 0.0457106873	-0.418465
C	 0.0524521526	 0.0192533285	 0.0216180755	 0.015945
C	 1.0145304134	-0.5251192934	-1.0944968496	-0.286247
C	 2.0373930902	-1.2646142187	-0.2075603703	 0.29159
C	 3.098518621	-2.1399847577	-0.8016131639	-0.499833
O	 1.1565630903	-1.9079546434	 0.7934155927	-0.331799
C	 0.8046427726	-0.5589660234	 1.2397536356	-0.050462
C	 2.2813017465	-0.2416829539	 0.930308585	 0.411009
O	 3.2105651322	 0.3033769042	 1.4397658314	-0.324367
H	 0.8300027405	 2.0551762255	 0.1267039416	 0.129998
H	-0.621739127	 1.8836693916	-0.8686499815	 0.123842
H	-0.7501568949	 1.8470899837	 0.8940260431	 0.121292
H	-0.921654165	-0.4734719812	-0.0485155602	 0.087671
H	 0.5185636524	-1.2168083994	-1.7800542843	 0.111456
H	 1.4779073041	 0.2745322898	-1.6812892564	 0.109456
H	 3.7479127683	-1.5451211258	-1.451119729	 0.136018
H	 3.7134954882	-2.5909802206	-0.0188708179	 0.141514
H	 2.6528261201	-2.9381307385	-1.4037633341	 0.132417
H	 0.3592327116	-0.5112724662	 2.2317839349	 0.098966
