21
gdb 59693	2.17481	1.43042	1.03478	4.3448	83.76	-0.2226	0.0329	0.2555	1246.4981	0.182372	-383.261166	-383.251638	-383.250694	-383.295516	35.207	
C	-0.0125828512	 1.4314918969	-0.1063488196	-0.322011
N	 0.0432467354	-0.0123348178	 0.0697463517	-0.054108
C	 0.7826362194	-0.3777044307	 1.2699037866	-0.327692
C	-1.2670505699	-0.6097432791	 0.0353430533	 0.099045
C	-2.1081189715	-0.4539738517	-1.2558936113	-0.249707
C	-2.5773881865	-1.9210171306	-1.0902609147	-0.236426
C	-1.3704274191	-2.1722449761	-0.1242628622	-0.218719
C	-0.229633893	-2.7929817107	-0.7808031351	 0.299616
N	 0.6621063858	-3.3154561764	-1.2997316449	-0.338632
H	 1.004762979	 1.8303401988	-0.1577704942	 0.124793
H	-0.5199521863	 1.6786440156	-1.042758274	 0.125163
H	-0.5399652993	 1.9497514791	 0.7177573853	 0.091359
H	 0.3033201291	-0.0136520033	 2.199224836	 0.089756
H	 0.8821682283	-1.4644164294	 1.3358233247	 0.131558
H	 1.789945917	 0.0453757059	 1.2200355205	 0.125818
H	-1.8808508636	-0.3324702846	 0.9155136485	 0.05762
H	-2.8708298292	 0.3261342259	-1.2743105302	 0.106896
H	-1.4522324785	-0.3438581864	-2.1235279921	 0.130069
H	-3.5225805524	-2.0031692877	-0.5497865799	 0.116442
H	-2.6209735323	-2.5431258502	-1.9839187742	 0.128905
H	-1.5939805712	-2.7289586072	 0.7887612456	 0.120253
