21
gdb 82644	2.32706	1.69279	1.31201	1.9493	82.33	-0.22	0.0817	0.3017	1099.7111	0.180963	-387.039747	-387.030678	-387.029734	-387.072845	34.807	
C	 0.0464268481	 1.6255007044	-0.0350654257	-0.425695
C	 0.0646885188	 0.1046941372	 0.0077495918	-0.02773
C	 1.1090340359	-0.6585893764	-0.8556999865	-0.001391
O	 2.387622018	-0.0919622069	-0.4498133258	-0.294241
C	 2.1870093189	-0.7665025851	 0.7929730615	-0.009697
C	 0.6986516646	-0.6413816278	 1.1915561072	 0.233369
C	 0.2119576039	-0.7256837921	 2.6075681543	-0.514769
C	 1.2020534527	-1.7612184389	 0.2726144411	 0.242556
C	 1.0885854556	-3.2502969032	 0.2935367541	-0.53326
H	 1.0607073183	 2.0197877323	 0.0635539551	 0.133047
H	-0.3719708833	 1.988463295	-0.9807810678	 0.10908
H	-0.5663166758	 2.0362148949	 0.7749413535	 0.109184
H	-0.9301977475	-0.3150910262	-0.1843260061	 0.066637
H	 1.0153544108	-0.7887252473	-1.9329933367	 0.07656
H	 3.0114649741	-0.8430372046	 1.4914296727	 0.099504
H	 0.2446424602	 0.2539094875	 3.0983808704	 0.126002
H	-0.8210905352	-1.0893235853	 2.6581817797	 0.118779
H	 0.8297036598	-1.4085751958	 3.2019523514	 0.116985
H	 0.0955575835	-3.5853157965	-0.0282045933	 0.12178
H	 1.829538815	-3.7196764433	-0.3634894241	 0.128818
H	 1.2519248638	-3.6354653019	 1.3059791334	 0.124483
