24
gdb 119039	1.91793	1.11397	0.80927	1.2826	86.43	-0.2214	0.0858	0.3072	1543.4552	0.215262	-405.514346	-405.503282	-405.502338	-405.550688	40.263	
C	-1.6471490172	-0.0712596587	 0.3960877962	-0.38398
C	-0.1455024523	 0.0830799508	 0.1181894459	-0.246574
C	 0.7388920582	-0.3964907187	 1.2640760252	 0.324688
C	 0.5355129044	 0.380891998	 2.5617737789	-0.239552
C	 1.637649613	 0.2272058342	 3.6034896891	-0.085437
O	 1.2196880141	 0.9565297371	 4.7527944286	-0.425416
C	 1.1124579559	-1.8463277483	 1.2938154057	-0.290886
N	 2.1208111368	-0.831931956	 1.013363602	-0.113967
C	 2.7143793551	-0.7885514529	-0.3127911331	-0.317245
H	-1.9661064394	 0.5267982041	 1.2544117555	 0.126207
H	-2.2348114184	 0.2523494313	-0.4685230713	 0.111953
H	-1.9020268659	-1.115876067	 0.6040665192	 0.117456
H	 0.0981032946	-0.4664205887	-0.7955763375	 0.095475
H	 0.0787624625	 1.1390949942	-0.0851597862	 0.097384
H	 0.4385267236	 1.4500788313	 2.3308926335	 0.100273
H	-0.4128916062	 0.0829278561	 3.0243344606	 0.11151
H	 1.7944805937	-0.8343182732	 3.8480741946	 0.085168
H	 2.5853332213	 0.6084417508	 3.2034249736	 0.099891
H	 1.928828329	 0.91752823	 5.4006452228	 0.283035
H	 1.2206386218	-2.3905055452	 2.2293907102	 0.107985
H	 0.763879603	-2.4581742942	 0.4604471056	 0.097958
H	 2.0624445094	-1.1438128246	-1.1254380715	 0.100701
H	 3.0232327127	 0.2362533978	-0.5436671751	 0.121407
H	 3.6109840004	-1.4174784982	-0.3111514625	 0.121965
