19
gdb 60802	2.6634	1.08502	0.89456	2.247	73.57	-0.2465	-0.05	0.1965	1337.4521	0.15492	-460.193415	-460.182956	-460.182011	-460.229629	36.7	
C	 0.2778457821	 1.6970759504	-0.1186647948	-0.4127
C	 0.0562819759	 0.1838017442	 0.0138600975	-0.115109
C	 0.6385615086	-0.6277138917	-1.179457148	 0.05778
O	 0.5072251186	-2.0064204765	-0.9521951063	-0.441789
C	-0.0278669297	-0.2677105955	-2.4931857083	 0.126149
O	-0.5988653375	-1.1037427546	-3.1534419562	-0.260764
C	 0.7674235781	-0.3343658546	 1.2815127535	 0.418619
C	 0.006288549	-1.3165727537	 2.1385967451	-0.48703
O	 1.8895823515	 0.0358549505	 1.5373248267	-0.319629
H	 1.3457698886	 1.9184832854	-0.1855733593	 0.147184
H	-0.2299254521	 2.115951115	-0.9910786423	 0.114605
H	-0.1084637949	 2.2141245482	 0.7644270046	 0.128966
H	-1.0128044593	-0.0486448668	 0.0779124891	 0.086338
H	 1.7044874856	-0.35119198	-1.2637236034	 0.114093
H	 0.006142311	-2.3493112227	-1.7102777552	 0.296693
H	 0.0379135325	 0.7846882616	-2.8257255537	 0.110545
H	-0.2591712922	-2.1801501886	 1.5198947703	 0.16345
H	 0.6116481322	-1.6276350394	 2.9907452325	 0.138887
H	-0.9308643981	-0.8686859709	 2.4897623882	 0.133712
