23
gdb 93828	2.28933	1.31431	0.9966	1.9912	81.13	-0.2588	0.061	0.3198	1289.3047	0.206466	-425.449255	-425.439742	-425.438798	-425.482787	37.406	
C	-0.005399039	 1.5564875863	-0.0029462664	-0.400356
C	 0.0475038153	 0.02616773	 0.0035547881	 0.001853
C	 0.7255110465	-0.530656448	-1.2613649216	-0.200193
C	 0.7657633999	-2.0581258147	-1.2729072193	 0.129005
O	 1.4495554223	-2.4494953312	-2.456988828	-0.439985
C	 1.4463314055	-2.5963602578	-0.0088725567	-0.236746
C	 0.7784990892	-2.0541382747	 1.2640560867	-0.233766
C	 0.7350970072	-0.5178237111	 1.2763712732	 0.1415
O	 2.0315532136	 0.0440855601	 1.4762281463	-0.442614
H	 1.003325219	 1.976301255	 0.0416116248	 0.124616
H	-0.4970844033	 1.930408334	-0.9067380327	 0.106399
H	-0.5583679387	 1.9349186434	 0.8633819165	 0.108945
H	-0.9841357334	-0.3554025142	 0.0240993394	 0.06922
H	 0.2085157398	-0.1752654554	-2.1588544345	 0.103751
H	 1.7567994053	-0.1576088243	-1.3405451288	 0.091819
H	-0.273449039	-2.4322061524	-1.295159072	 0.060945
H	 1.499473287	-3.4108008559	-2.4678232844	 0.278205
H	 1.4268310684	-3.693647201	-0.0073916874	 0.085218
H	 2.5068803003	-2.3112580488	-0.0428263972	 0.095221
H	-0.2487506473	-2.4357679103	 1.3296754158	 0.094488
H	 1.3087697793	-2.4050807281	 2.1549129694	 0.103963
H	 0.1649191592	-0.184747834	 2.1511653419	 0.077413
H	 2.5957163427	-0.2249737969	 0.7443326269	 0.281098
