22
gdb 59872	2.52872	0.99519	0.8939	3.4429	79.69	-0.2305	-0.0276	0.2029	1449.6117	0.190911	-441.487371	-441.476476	-441.475531	-441.523762	39.215	
C	 0.6569113225	 0.0243861254	 0.7201358367	-0.407189
C	-0.0327829641	-0.377825285	-0.5942399969	 0.07168
O	-1.4289451286	-0.2831700276	-0.4763384949	-0.442343
C	 0.4405954372	 0.4981011148	-1.7559774177	 0.345513
O	-0.3645556277	 1.1897460652	-2.3441876921	-0.329175
C	 1.922754219	 0.5399329072	-2.1120265395	-0.246113
N	 2.5822583715	-0.7521184711	-2.0108777607	-0.058045
C	 2.2011194991	-1.6395899444	-3.1031672031	-0.324756
C	 4.0298600398	-0.6271252045	-1.9104805348	-0.317262
H	 1.7304541953	-0.1765051299	 0.6777297909	 0.12381
H	 0.4900501953	 1.0840798864	 0.9383532354	 0.120575
H	 0.2234532421	-0.5606807443	 1.5347844507	 0.134895
H	 0.2531717998	-1.415280561	-0.8221769696	 0.100472
H	-1.6955428167	 0.3824289986	-1.1309378655	 0.289101
H	 2.0126365485	 1.0124392513	-3.1062376627	 0.108419
H	 2.3894850358	 1.224479374	-1.3911593255	 0.12926
H	 2.5298404545	-1.2666192094	-4.0909988437	 0.101847
H	 2.6433232621	-2.6277792208	-2.9462194037	 0.125417
H	 1.1137122622	-1.7576885076	-3.1353574864	 0.129155
H	 4.2925345183	-0.0150022914	-1.0422953869	 0.121545
H	 4.4726288082	-1.6184261847	-1.7740081254	 0.123953
H	 4.4910866158	-0.1702264314	-2.8058785046	 0.099241
