17
gdb 14446	4.18325	2.08024	1.77859	2.2999	66.65	-0.2155	0.0756	0.2911	781.373	0.144401	-363.815459	-363.80909	-363.808146	-363.845466	26.215	
O	-0.1148989953	 1.3935291606	-0.0329112479	-0.462469
C	 0.047693774	 0.0217194593	-0.0213239008	 0.366942
C	 0.8532801478	-0.7964730057	-1.0202790608	-0.246638
N	-0.1340951222	-1.930936072	-0.8516003518	-0.114806
C	 0.3803198814	-2.8858290527	 0.1522809508	-0.159872
C	 0.5879672002	-2.0776656163	 1.4707926307	-0.256331
C	-0.2622108159	-0.8398156229	 1.207982802	-0.114767
C	-1.0314632455	-1.0182833173	-0.080898398	-0.095288
H	 0.5699299161	 1.7854917891	 0.5200933137	 0.286394
H	 0.7957139945	-0.3901659038	-2.0342319186	 0.113973
H	 1.8954500454	-1.0471360712	-0.7859970343	 0.089937
H	-0.3745108291	-3.6657381026	 0.2970314883	 0.105845
H	 1.2919215484	-3.3637985743	-0.2168114784	 0.103149
H	 0.2388190974	-2.62585391	 2.3514487786	 0.100504
H	 1.6424183291	-1.8339337086	 1.6396456158	 0.097962
H	-0.738951742	-0.3014779302	 2.0198426913	 0.089059
H	-2.1019557743	-0.9750291817	-0.2320280707	 0.096408
