16
gdb 5383	4.80529	1.49792	1.25376	2.7312	72.23	-0.2474	-0.0374	0.2099	981.1941	0.133126	-342.844588	-342.837477	-342.836533	-342.876565	25.927	
C	 0.0274841629	 1.5647143145	 0.0095569275	-0.368971
C	-0.0017910451	 0.026090201	 0.002644561	-0.299097
C	-1.402786464	-0.5301511809	 0.0128902023	 0.23505
C	-2.0957480602	-0.8001855519	 1.1936527415	-0.042383
N	-3.3464247337	-1.2633770371	 1.2203806876	-0.246746
C	-3.9168737473	-1.4631245164	 0.0315539615	 0.075035
N	-3.3664735669	-1.2571059368	-1.1655937694	-0.246744
C	-2.1154765356	-0.79401225	-1.1574473678	-0.042486
H	 1.0577373439	 1.9327621649	 0.0017992704	 0.120538
H	-0.4861891005	 1.9708613442	-0.8674013871	 0.125758
H	-0.4699069281	 1.9626673897	 0.8995705851	 0.125751
H	 0.5282085776	-0.3436264902	-0.882621899	 0.112347
H	 0.5443943154	-0.351816006	 0.8745182494	 0.112394
H	-1.6176121088	-0.6409422798	 2.1598580199	 0.110439
H	-4.9380261571	-1.8369013693	 0.0391550416	 0.118675
H	-1.6536327124	-0.6296509161	-2.1306932242	 0.11044
