14
gdb 1877	5.25222	2.34589	1.87554	2.1299	54.72	-0.2682	0.0221	0.2903	691.6663	0.113906	-361.73284	-361.726264	-361.725319	-361.763621	23.63	
C	 0.3015992296	 1.3956491914	-0.0560036986	-0.39992
C	-0.168647627	-0.0423277004	 0.0869548664	 0.214675
O	 0.1363566683	-0.8335245527	-1.0430629491	-0.257847
C	 1.3047277276	-1.5815017193	-0.7491818523	-0.171611
C	 1.3877346099	-1.5703389336	 0.761243985	 0.381446
N	 2.1641185841	-2.2650673415	 1.4687391094	-0.534419
O	 0.4692667552	-0.6685021247	 1.208623929	-0.236188
H	 1.3831439361	 1.4325393458	-0.2162124289	 0.127982
H	-0.1980681612	 1.8604865317	-0.9100745146	 0.134359
H	 0.0602673752	 1.9631225663	 0.8469134126	 0.132818
H	-1.2507966526	-0.0929174276	 0.2524489139	 0.10435
H	 1.1985719553	-2.5953093528	-1.1419090133	 0.14696
H	 2.206047047	-1.1302439333	-1.1873910665	 0.129352
H	 2.0365994326	-2.0619047494	 2.460907377	 0.228043
