15
gdb 10365	2.55881	2.08408	1.40486	4.0037	71.39	-0.2787	0.0115	0.2902	909.5061	0.118188	-325.492508	-325.484731	-325.483787	-325.52456	28.788	
C	-0.2974558924	-1.2784679663	-0.3610612001	-0.397925
C	-0.1572945653	-0.0992657846	-0.1797976764	 0.233514
C	 0.0495640626	 1.3150097326	 0.0811511611	-0.014139
C	-0.0841359331	 1.807267664	 1.5774380392	-0.24172
C	 1.1835834387	 2.6751116664	 1.3840024287	-0.22253
C	 1.5411532729	 1.8361017143	 0.1326606246	-0.24171
C	-0.7637335839	 2.139595347	-0.817230342	 0.257589
N	-1.3918801876	 2.8183123781	-1.5105273102	-0.340157
H	-0.4318848606	-2.318000053	-0.5331422648	 0.204035
H	-1.0210225684	 2.3008871755	 1.8365532517	 0.131734
H	 0.0826602637	 0.9633489729	 2.2488513031	 0.127894
H	 0.9351798795	 3.7067779806	 1.1251670448	 0.129669
H	 1.9081041219	 2.6816120084	 2.19916661	 0.114115
H	 2.2050143731	 1.0009961863	 0.3622401254	 0.127895
H	 1.8983225689	 2.3526367277	-0.7585086151	 0.131734
