15
gdb 29845	4.0924	1.10491	0.87484	2.9471	81.39	-0.1951	-0.0134	0.1817	1257.3456	0.112436	-416.839035	-416.830419	-416.829475	-416.872301	31.503	
C	 0.0022677517	 1.4658602882	 0.0094104397	-0.347043
N	-0.0377144273	 0.0203373206	 0.0011531408	-0.083125
C	-1.1587284798	-0.7858454824	 0.0039591686	-0.2332
C	-0.7532594551	-2.0845292893	-0.0064588293	 0.200331
N	 0.6490061423	-2.055300945	-0.0157817596	-0.448885
C	 1.1268736429	-0.7581589143	-0.0108906251	 0.460876
O	 2.2771252343	-0.3656066172	-0.0164657707	-0.44126
C	-1.4985052973	-3.2742954046	-0.0087254707	 0.284293
C	-2.1109032461	-4.3125622516	-0.0109185133	-0.461284
H	 1.0549531343	 1.7531955019	 0.0023601619	 0.175843
H	-0.491702445	 1.8800839863	-0.8755550834	 0.13665
H	-0.4767728333	 1.8696144531	 0.9073486717	 0.136662
H	-2.1574115897	-0.384546924	 0.012851279	 0.148099
H	 1.2537815405	-2.8573987945	-0.0244971502	 0.274124
H	-2.6612566425	-5.2205168773	-0.0127281093	 0.197918
