15
gdb 14411	3.59441	2.16512	1.83574	4.3826	65.11	-0.2424	0.0021	0.2445	771.0559	0.119201	-362.619244	-362.612622	-362.611678	-362.6499	25.442	
C	-0.042341771	 1.5691571283	-0.058063151	-0.520535
C	 0.0399295418	 0.0837209656	-0.0469982707	 0.369779
C	 0.5700294039	-1.0041917003	-0.9046047565	-0.132259
C	 1.2974051107	-1.5907448876	 0.2990687241	-0.194041
N	 0.3626928314	-0.7864334144	 1.1939863893	-0.252859
C	-0.9298700932	-1.4788402653	 0.9023023826	 0.433265
O	-1.6585476399	-2.0601976204	 1.6410552969	-0.315821
C	-0.9377847571	-0.9997833788	-0.5045630824	-0.267344
H	 0.92715953	 2.0176782919	 0.1807289713	 0.139668
H	-0.352035201	 1.927434741	-1.0445443392	 0.133154
H	-0.7704937208	 1.9216956059	 0.6792403655	 0.144951
H	 0.8484962187	-0.9705124042	-1.9520209499	 0.104891
H	 1.2651783786	-2.6709015285	 0.4773210022	 0.120492
H	 2.3208933338	-1.2229524269	 0.4020355277	 0.120996
H	-1.7298680461	-0.9483081363	-1.2396902399	 0.115662
