14
gdb 8625	2.12455	2.12395	1.41787	1.2962	58.97	-0.2636	-0.0587	0.2049	907.2904	0.10223	-419.695553	-419.686549	-419.685605	-419.730059	29.674	
C	 0.2538809611	 1.6440157878	-0.0911431043	-0.41999
C	 0.0620004079	 0.103080177	 0.0695694137	-0.027449
C	 0.9509150547	-0.3503408851	 1.2271598293	 0.125095
O	 0.6087821383	-0.2619967278	 2.3785477917	-0.256471
C	-1.4157726967	-0.1457255188	 0.3693029255	 0.124973
O	-2.2501007566	-0.2064563623	-0.4971934957	-0.256571
C	 0.48280679	-0.5502063017	-1.2464616409	 0.124803
O	 1.6332802627	-0.7894633773	-1.5106462188	-0.256646
H	 1.3003440119	 1.865783225	-0.3168769804	 0.153153
H	-0.3739337361	 2.0132821948	-0.9064498421	 0.153084
H	-0.0277720058	 2.1517216337	 0.8352012062	 0.153017
H	 1.9393581468	-0.7488415994	 0.9276373523	 0.127614
H	-1.6629970456	-0.2476765939	 1.4435321612	 0.127665
H	-0.3476240027	-0.7698403822	-1.9447406078	 0.127721
