16
gdb 23109	2.52594	1.34645	0.95241	2.3418	73.94	-0.239	-0.0264	0.2126	1194.1233	0.122775	-437.862819	-437.854391	-437.853447	-437.896595	30.705	
O	-0.2732706968	 1.4375047578	-0.0798408549	-0.388175
N	-0.0324378216	 0.0564191463	-0.0113836951	-0.21975
C	-1.1217420433	-0.5990798254	 0.0133341064	 0.376839
C	-2.5440502817	-0.0785735053	-0.0102749763	-0.347102
C	-3.3544753828	-1.3497068531	 0.0552069213	-0.085867
C	-2.5976568972	-2.4450786778	 0.0974274181	-0.052759
C	-1.1242066639	-2.1218725325	 0.0625369461	-0.234535
C	-0.3644264541	-2.7308092056	-1.1181211981	 0.149445
O	-0.7991683476	-3.5948542455	-1.8310063795	-0.235476
H	 0.6182005967	 1.8025760914	-0.0788192496	 0.309301
H	-2.7250445664	 0.6011304917	 0.8328958784	 0.13795
H	-2.7365460662	 0.5152500814	-0.9137941082	 0.140297
H	-4.4381662474	-1.3427585826	 0.0609025448	 0.105701
H	-2.9566056584	-3.4651514976	 0.1273154497	 0.116611
H	-0.589115394	-2.4720642724	 0.9597917946	 0.126055
H	 0.6496860946	-2.2997890809	-1.2609068676	 0.101464
