17
gdb 83959	2.37591	1.74613	1.47585	2.6706	62.64	-0.2407	0.0513	0.2921	952.2396	0.136431	-496.055959	-496.048071	-496.047127	-496.088085	30.48	
O	 0.1384895026	 1.3785940951	-0.095783198	-0.438729
C	 0.0354867611	 0.0004185369	 0.0152158393	 0.16498
C	 0.1896194544	-0.686788767	 1.4167755644	 0.004299
O	-0.4760327849	 0.1274796063	 2.3893590231	-0.279006
C	-1.8738976289	 0.1537342313	 2.1896179833	 0.004676
O	-2.226840523	 0.1857969677	 0.8196542054	-0.292456
C	-1.3814680104	-0.6568701595	 0.021499948	 0.042589
C	-0.7665334061	-1.7975857625	 0.8767276872	 0.057703
O	-0.1294687858	-2.7129685835	 0.0114653368	-0.437855
H	-0.5555304318	 1.7556236801	 0.4585653639	 0.288304
H	 0.6894204006	-0.4585068953	-0.7250374009	 0.109257
H	 1.1713255779	-0.9457637521	 1.8185314924	 0.080465
H	-2.3437388009	-0.7135708237	 2.676222293	 0.104118
H	-2.2540812431	 1.0717839109	 2.6457269767	 0.124489
H	-1.9127692415	-0.8923386426	-0.9007825168	 0.093815
H	-1.4158204121	-2.3072084196	 1.5959171428	 0.0824
H	 0.446088232	-3.2750906124	 0.5406858495	 0.290952
