18
gdb 56010	4.14816	0.99167	0.83763	4.3825	74.45	-0.2325	0.0037	0.2362	1340.3694	0.148144	-439.124816	-439.116156	-439.115212	-439.15919	31.877	
N	 0.4013604056	 0.2175318681	 0.895329074	-0.50806
C	-0.1891037914	 0.1535044302	-0.3311342677	 0.360725
O	 0.054206369	 0.9344235829	-1.2315051343	-0.361467
C	-1.2329824439	-0.959399235	-0.4799398439	-0.293644
C	-0.7621464331	-2.3634824872	-0.0601164564	 0.058194
O	-0.4921402213	-2.420194536	 1.3540169899	-0.280417
C	-1.3218578951	-3.3937560703	 1.9913792696	-0.121435
C	-2.1250604727	-4.0012917108	 0.8778423167	-0.096306
C	-1.8012947066	-3.4305147702	-0.2756464614	-0.081505
H	 1.15193058	 0.8777756489	 1.0166235268	 0.252881
H	 0.2848892906	-0.5414519468	 1.5502514948	 0.270271
H	-2.1210057839	-0.70064079	 0.1088462222	 0.121036
H	-1.5196139237	-0.9705504298	-1.5341857476	 0.124709
H	 0.1723615166	-2.5968980723	-0.5940508488	 0.099624
H	-0.6892458574	-4.1304538701	 2.5092056154	 0.114135
H	-1.9521421637	-2.9116953793	 2.7544289132	 0.112274
H	-2.8502160103	-4.7891783418	 1.0354974843	 0.113702
H	-2.2076700084	-3.6560025206	-1.2530612367	 0.115283
