18
gdb 19880	3.2509	2.16347	1.94115	1.4996	69.83	-0.2336	0.0708	0.3044	793.4858	0.156044	-347.772823	-347.766115	-347.765171	-347.803255	27.467	
O	-0.0080906663	 1.4517605945	-0.1399099845	-0.407181
C	-0.0600149082	 0.0583336292	-0.0166547713	 0.082729
C	-0.4600357452	-0.6353745927	 1.2599406216	-0.106435
C	-1.2090709321	 0.1519723808	 2.3458348332	-0.247989
C	-2.6244032474	 0.4319497154	 1.8197781652	-0.031183
C	-2.8308015085	 1.4142133533	 0.6945639754	-0.29789
C	-2.6985255276	-0.0620929442	 0.3886243011	-0.034246
C	-1.3674923591	-0.6910160736	 0.0278392612	-0.077675
H	 0.7352621929	 1.7624896012	 0.3884707327	 0.287145
H	 0.7214538418	-0.4482703004	-0.5864478971	 0.082905
H	 0.1328678522	-1.4877987387	 1.5770520066	 0.078961
H	-1.2668461479	-0.4602319445	 3.2509563923	 0.101657
H	-0.6831714686	 1.0737329422	 2.6247706604	 0.092454
H	-3.4494187067	 0.2729177895	 2.506421337	 0.077497
H	-3.8280047764	 1.8336806191	 0.6015276069	 0.09692
H	-2.028481967	 2.0783747034	 0.4116662798	 0.141527
H	-3.5754176397	-0.5856621343	 0.0244960014	 0.078501
H	-1.4193037963	-1.5842835001	-0.5854361619	 0.082303
