16
gdb 124882	3.71269	1.34164	1.06761	3.242	70.86	-0.2634	-0.026	0.2374	1103.1434	0.125289	-434.043884	-434.036145	-434.035201	-434.076739	28.562	
C	 0.1157328329	 1.4789270738	 0.2765777683	-0.467119
C	-0.0231633089	 0.0013100582	-0.0196717161	 0.147186
C	 0.5435451373	-0.5610686447	-1.2844330616	-0.262088
N	 1.175262438	-0.8711671358	-0.0008023563	-0.325821
C	-1.2322640519	-0.6266036569	 0.554680064	 0.475128
N	-2.1621668692	-0.0508838049	 1.263585913	-0.339132
C	-3.0222532747	-1.0947365763	 1.4951799147	 0.030461
N	-2.6689166329	-2.2365250714	 0.9743400203	-0.1103
O	-1.4605416385	-1.9270708086	 0.3366053552	-0.200802
H	 1.0109691952	 1.8758330646	-0.2113249574	 0.112851
H	-0.7526695741	 2.0356906245	-0.0851593958	 0.145882
H	 0.1936221232	 1.6554670093	 1.3531673883	 0.14367
H	 0.0541162184	-1.4028416846	-1.7640789426	 0.142413
H	 1.0227964048	 0.1435107492	-1.959389933	 0.121551
H	 1.9992896192	-0.2902760595	 0.1383714514	 0.23914
H	-3.9339124689	-0.9994940968	 2.0669827274	 0.14698
