14
gdb 19452	5.61391	1.60098	1.58569	5.273	66.26	-0.2403	-0.0288	0.2115	815.8969	0.109856	-341.541908	-341.535884	-341.53494	-341.571957	23.734	
N	-0.0982325166	-1.1572489861	-0.1172399128	-0.325638
C	-0.0348319769	-0.0057300682	-0.0348738988	 0.286503
C	-0.0054831088	 1.4472881243	 0.0200835609	-0.138759
C	 0.0416278819	 2.0876326629	 1.4650826663	-0.052913
N	 1.4821295804	 1.6678879437	 1.471561701	-0.283636
C	 1.4284060289	 2.1134995733	 0.0398385185	-0.052912
C	 1.0242481053	 3.5994304699	 0.1290117426	-0.098104
C	 0.0927262135	 3.5820647804	 1.0864690593	-0.098104
H	-0.7280596721	 1.8734893221	-0.6752554605	 0.122801
H	-0.6031422839	 1.7452426805	 2.2724147139	 0.094524
H	 2.05686482	 2.2893500317	 2.0420674992	 0.212263
H	 2.2237679331	 1.7979713131	-0.6329065079	 0.094523
H	 1.395266123	 4.4091184209	-0.4820737522	 0.119726
H	-0.522467468	 4.3733658516	 1.4890281204	 0.119726
