19
gdb 105248	2.68927	1.27453	1.00197	2.869	71.44	-0.2642	0.0746	0.3388	1226.8483	0.157179	-460.11485	-460.105557	-460.104613	-460.148977	34.235	
C	 0.1924689671	 1.2048642853	-0.5152710609	-0.443166
C	 0.3502808198	-0.1557654268	 0.1126660228	 0.045648
O	 1.6349670449	-0.5276251572	 0.663639476	-0.298793
C	 0.5116583463	-0.4317193571	 1.5522232761	 0.294213
C	 0.6586487161	 0.6560541417	 2.617777842	-0.14123
O	 1.512166707	 1.7075787945	 2.2245531709	-0.412617
C	-0.0149934886	-1.7327410073	 2.0910523496	-0.014894
C	 0.5791363494	-3.0208658006	 1.7201673936	-0.16608
O	 0.840723269	-2.4322976385	 2.9979520001	-0.236414
H	 0.7057365726	 1.2327586979	-1.4824231603	 0.127879
H	-0.870040823	 1.397081639	-0.7012471919	 0.123144
H	 0.5872603321	 1.9910615175	 0.1269711541	 0.157086
H	-0.085589638	-0.9699900524	-0.470841989	 0.089218
H	-0.3210072577	 1.0910091843	 2.8480730147	 0.114275
H	 1.0282977226	 0.1671628436	 3.5320540627	 0.119695
H	 2.2354167121	 1.2877179174	 1.7398078243	 0.292355
H	-1.0624757751	-1.7055941277	 2.3986463851	 0.099809
H	-0.0343439692	-3.9203364643	 1.7373878875	 0.114838
H	 1.4214978326	-3.0251722093	 1.0333324725	 0.135033
