21
gdb 83611	2.43253	1.83463	1.23769	1.7729	82.15	-0.2366	0.0684	0.3051	1077.5277	0.183493	-387.041834	-387.033861	-387.032917	-387.07412	31.697	
C	-0.0650238466	 1.5642798329	 0.0462572931	-0.409076
C	 0.0343850216	 0.0474133854	-0.0392582456	-0.001065
C	 0.7619511642	-0.5570753225	-1.2799530938	-0.078799
C	 0.3170251969	-1.9893811801	-1.71902325	-0.234592
C	 1.5509040848	-2.6126462902	-0.987218628	-0.343662
C	 1.8307396683	-1.2463168207	-0.3656064501	 0.33151
C	 3.0666102489	-0.522731473	 0.1436810393	-0.177646
O	 2.2700149652	 0.1882052664	 1.1278069228	-0.293385
C	 1.105915817	-0.632510215	 0.862765533	 0.060366
H	 0.9251135798	 2.0221661538	-0.0213788668	 0.129524
H	-0.6879636651	 1.9577188087	-0.7641689879	 0.108208
H	-0.5103416511	 1.8787542273	 0.996369581	 0.113859
H	-0.9553271916	-0.4016619791	 0.1098132761	 0.064631
H	 1.0372486097	 0.1252168093	-2.0875906847	 0.059621
H	-0.6497045338	-2.2923286989	-1.3069051088	 0.101017
H	 0.2936833346	-2.155125628	-2.7980422249	 0.10369
H	 1.3706810372	-3.4467710309	-0.3023939141	 0.099521
H	 2.3321210788	-2.9141371469	-1.6925069699	 0.105068
H	 3.8120695929	-1.1681460624	 0.6309394394	 0.097496
H	 3.5785481928	 0.15610887	-0.5497773067	 0.100027
H	 0.7862736653	-1.1828750961	 1.7547895764	 0.063687
