18
gdb 27295	3.16528	1.31129	0.93791	6.3826	83.99	-0.2087	-0.0065	0.2022	1245.1589	0.148369	-402.026941	-402.018153	-402.017209	-402.06026	32.787	
C	-0.0184610801	 1.5305611907	 0.0615006162	-0.49303
C	 0.003471001	 0.0321505259	-0.0322891042	 0.393318
C	 0.0153877328	-0.6711940123	-1.1938818772	-0.319905
C	 0.0366868814	-2.1292532373	-1.2338126275	 0.323312
O	 0.0475870706	-2.7781379906	-2.2793886984	-0.399381
C	 0.0442307493	-2.781000904	 0.0883662219	 0.128653
C	 0.0656926618	-4.2793755777	 0.1230647448	-0.473361
C	 0.0316743519	-2.0213336702	 1.2085819663	-0.067197
N	 0.011734126	-0.6482774972	 1.1594790854	-0.384955
H	 0.8600272049	 1.9085558004	 0.598201756	 0.137363
H	-0.0238267649	 1.9738335063	-0.9348373112	 0.151353
H	-0.9087544054	 1.8827893698	 0.5962724662	 0.137334
H	 0.0091115992	-0.1473470702	-2.1423849932	 0.101979
H	 0.9457423451	-4.6609815132	-0.4053296583	 0.14152
H	 0.069867067	-4.6658040029	 1.1462788417	 0.102011
H	-0.8015835458	-4.6861773773	-0.4076764045	 0.141516
H	 0.0363548223	-2.4456004846	 2.2067322266	 0.121367
H	 0.0026263829	-0.1280678257	 2.0208872591	 0.2581
