17
gdb 50495	3.88473	1.0437	0.9715	3.8866	72.33	-0.2529	-0.0437	0.2092	1217.5065	0.137102	-418.031561	-418.023215	-418.022271	-418.065477	30.195	
O	 0.0730255954	 0.0510915218	 0.7403345832	-0.248143
C	 0.0839846619	 1.1869289485	 0.3375645841	 0.152779
C	 1.3257848974	 1.8891919284	-0.1853503989	-0.054159
C	 1.7092182069	 3.0890057829	 0.723828524	-0.248978
C	 2.7290137012	 2.4701203449	 1.6891245336	-0.219917
C	 3.4796099357	 1.4764157449	 0.7700156114	-0.14433
N	 2.4851819955	 0.9956136206	-0.2036030182	-0.295498
C	 4.6032020542	 2.1435855602	 0.0798886735	 0.304231
N	 5.4804307718	 2.6864437575	-0.4408327206	-0.327018
H	-0.8411637519	 1.8042180072	 0.3207235232	 0.093702
H	 1.0741027185	 2.251055109	-1.193487114	 0.109657
H	 2.1778649476	 3.8723377419	 0.1222428349	 0.138837
H	 0.845720687	 3.5296965132	 1.2292889946	 0.115241
H	 3.3839948766	 3.2054128962	 2.1596587693	 0.130346
H	 2.2232186441	 1.9005995761	 2.4749423412	 0.121178
H	 3.8979963925	 0.6362438483	 1.3320071549	 0.129113
H	 2.1763381957	 0.0609348284	 0.0454833239	 0.242958
