17
gdb 13952	4.8899	1.31215	1.21792	4.0854	72.33	-0.2693	0.0329	0.3021	1019.7551	0.14315	-326.716165	-326.708746	-326.707802	-326.748248	27.869	
N	-0.1035817329	-1.1268745941	 0.3449162361	-0.309006
C	-0.0826369697	 0.0089276368	 0.1333169599	 0.264514
C	-0.0296243114	 1.4486341308	-0.1409589412	-0.457282
C	 1.3825622045	 1.9852723613	-0.1272837203	 0.385342
C	 2.0775194234	 2.4095560928	 1.13564669	-0.309126
C	 1.8762659026	 3.4250250976	 0.0413159758	-0.115466
C	 2.9197841043	 3.2151003291	-1.0626931249	-0.217574
C	 2.420033666	 1.7417035172	-1.2335767459	-0.28517
H	-0.5038740178	 1.628040135	-1.1141149741	 0.148764
H	-0.6412746817	 1.9653647983	 0.6077957871	 0.150003
H	 1.4349469206	 2.5275454231	 2.0029478503	 0.114731
H	 3.0731731224	 2.0383629049	 1.3685302973	 0.113015
H	 1.3011236008	 4.3287423029	 0.2067323359	 0.089557
H	 2.7351296476	 3.8192968607	-1.9532127894	 0.107654
H	 3.9629673885	 3.3496558786	-0.7600965828	 0.10334
H	 3.1413108444	 0.9413377966	-1.0440781721	 0.109751
H	 1.9646849587	 1.5735458886	-2.2128893515	 0.106954
