23
gdb 122349	3.28849	0.76792	0.72793	1.9097	83.27	-0.2254	0.0691	0.2945	1721.5172	0.203169	-425.402198	-425.391207	-425.390262	-425.43937	38.998	
C	 0.0358166211	 1.3352216402	 0.4667822717	-0.383012
C	-0.1026050399	-0.0704560637	-0.1232926157	-0.18703
C	-1.475758064	-0.6726217556	 0.135318975	-0.04877
O	-1.5289515523	-1.9623620568	-0.4714799037	-0.268909
C	-2.7572030629	-2.6056193052	-0.2752772261	 0.051329
C	-2.8026156948	-4.0853133813	-0.5802777496	-0.109341
C	-1.6226389107	-4.8143203878	-1.1828507593	-0.393744
C	-2.7871753844	-3.6022289745	 0.8621928864	 0.089251
O	-1.6289589631	-3.7313088719	 1.6307375781	-0.432614
H	 1.0303935083	 1.7456172603	 0.2711940904	 0.120202
H	-0.6983438854	 2.0237796943	 0.0342471825	 0.118421
H	-0.1137967958	 1.330006637	 1.5519770309	 0.119685
H	 0.0692599628	-0.049299627	-1.2053895756	 0.111299
H	 0.6602215373	-0.734665039	 0.3003051042	 0.103574
H	-1.6733480315	-0.7525381046	 1.215229956	 0.102113
H	-2.2633109644	-0.0326309516	-0.2942929716	 0.094246
H	-3.6253650779	-1.9860923312	-0.4998946901	 0.083351
H	-3.7725103152	-4.4270736593	-0.9343246475	 0.085621
H	-0.6784015176	-4.4821051698	-0.7488813259	 0.12031
H	-1.709245464	-5.8912292201	-1.0064146209	 0.118989
H	-1.5681070354	-4.6503599996	-2.2638478725	 0.117483
H	-3.6809064752	-3.7171222994	 1.4675878185	 0.096578
H	-0.958550365	-3.1844567034	 1.1998201348	 0.290967
