21
gdb 73727	2.51757	1.82468	1.34782	1.2251	80.99	-0.2381	0.0799	0.318	1026.5057	0.185314	-387.07356	-387.066081	-387.065137	-387.104824	31.65	
O	-0.0557396593	 1.3204612609	-0.0054050679	-0.476078
C	 0.0151013745	-0.087618317	 0.0321697212	 0.414293
C	 1.1342283264	-0.6392045783	-0.8358534634	-0.273664
C	 1.1197381942	-2.1678855149	-1.0249207767	-0.21445
C	-0.3038728463	-2.7371665051	-1.1369317035	-0.204866
C	-1.2003578825	-2.2270871293	-0.0049596889	-0.029948
C	-0.5512593136	-2.1725307616	 1.4253338163	-0.262628
C	-0.5272097857	-0.6477377487	 1.3389735183	-0.121025
C	-1.3476395967	-0.6897805414	 0.0371387613	-0.107327
H	 0.7114270776	 1.6630283948	 0.4665285924	 0.278639
H	 1.024333815	-0.1445556408	-1.8096114773	 0.106784
H	 2.1087900118	-0.3215858111	-0.4396291594	 0.081552
H	 1.7012991359	-2.4279096451	-1.9157061581	 0.091761
H	 1.6315126214	-2.6465152971	-0.1836808184	 0.103351
H	-0.7513855325	-2.4504713915	-2.0981208402	 0.095771
H	-0.2596414736	-3.8329353108	-1.1249804692	 0.09024
H	-2.1604114092	-2.747126661	-0.0045684843	 0.070871
H	-1.2627768803	-2.507468955	 2.1849170348	 0.100441
H	 0.3927634061	-2.7010942598	 1.5882727478	 0.090602
H	-0.6490230908	 0.0335020768	 2.1736572674	 0.078511
H	-2.2213888126	-0.115429274	-0.2451455222	 0.087171
