21
gdb 123214	10.15941	0.40507	0.39432	0.6251	83.34	-0.2551	0.0341	0.2891	2657.4795	0.178801	-424.171398	-424.160114	-424.15917	-424.209405	38.511	
O	-0.0696983026	 1.432437315	 0.0107363427	-0.421842
C	 0.0146463522	 0.0152272261	 0.0022395392	-0.074551
C	-1.404062056	-0.5377474405	 0.0127252469	-0.168724
C	-1.4422777231	-2.068007289	 0.0048691277	-0.205134
C	-2.8632577036	-2.6122994611	 0.0154729993	-0.039434
O	-2.8034804881	-4.0256923534	 0.0072492918	-0.246487
C	-4.0855530427	-4.6190639421	 0.0164283142	-0.206278
C	-3.9659054975	-6.0713935149	 0.0074834955	 0.280284
C	-3.8974334279	-7.2701568024	 0.0005362795	-0.414752
H	 0.8240760472	 1.7867954663	 0.0038232951	 0.285669
H	 0.5482065853	-0.3477750692	-0.8916601476	 0.085653
H	 0.565066228	-0.3573988606	 0.8818457774	 0.085651
H	-1.9195871487	-0.147138851	 0.8988263881	 0.106629
H	-1.9362699987	-0.137689469	-0.8591821587	 0.106625
H	-0.9278410521	-2.4587971183	-0.8813885928	 0.109104
H	-0.9110941561	-2.4682383618	 0.876919403	 0.109104
H	-3.4055968328	-2.2575890225	 0.9093755116	 0.087424
H	-3.4224947242	-2.2479930813	-0.8640445707	 0.087423
H	-4.6534553923	-4.3003348915	 0.9079578387	 0.117039
H	-4.6705169519	-4.290793878	-0.8604799567	 0.117034
H	-3.8287511342	-8.3297653207	-0.005945604	 0.199564
