21
gdb 120991	3.88005	0.91812	0.86551	2.3293	79.26	-0.2375	0.075	0.3124	1443.5782	0.182135	-424.176146	-424.167185	-424.166241	-424.21071	32.905	
C	 0.205863043	 1.2933045791	-0.1655915544	-0.225315
O	 0.0372388651	-0.0924574942	 0.0057990943	-0.230219
C	 0.7428138666	-0.5990647392	 1.1152768026	-0.072817
C	 0.5686089473	-2.102329908	 1.1511983302	 0.132779
O	 1.4019366971	-2.8176030953	 0.2008247959	-0.312685
C	 1.8685012845	-3.7248004337	 1.2202343706	 0.132581
C	 3.2423997752	-3.3200527368	 1.7989254044	-0.228235
C	 2.5160032113	-2.4727503108	 2.8927671582	-0.236895
C	 1.1345092187	-2.9186535068	 2.3299691465	-0.118351
H	 1.2618580645	 1.5601470073	-0.3306512148	 0.104861
H	-0.3734413793	 1.5873383196	-1.0441641934	 0.128311
H	-0.1574137504	 1.8617667387	 0.7062253453	 0.100047
H	 1.8116495091	-0.3438001762	 1.0442850813	 0.090784
H	 0.3558646352	-0.1664369865	 2.0567627731	 0.082803
H	-0.4906176942	-2.3251501532	 0.9609533788	 0.084551
H	 1.6833304065	-4.7714355016	 0.963258575	 0.073488
H	 3.8146482362	-4.157559155	 2.207462677	 0.099908
H	 3.8683820357	-2.7734575258	 1.0905360663	 0.110893
H	 2.6908835562	-2.8418744961	 3.9056966318	 0.105077
H	 2.7167758689	-1.3990914045	 2.8908321559	 0.103955
H	 0.4151683228	-3.3364743209	 3.0332322455	 0.074481
