15
gdb 46475	2.92207	1.52357	1.09873	4.3871	66.2	-0.2376	-0.1027	0.1349	1056.1898	0.111494	-457.770608	-457.762812	-457.761868	-457.803509	28.715	
O	-0.0240140135	-0.0007442768	 0.198140778	-0.271798
C	-0.0566217544	 1.1839450008	 0.0085708443	 0.320082
C	-1.2736891327	 2.097523539	-0.059403528	-0.347494
C	-0.8071043918	 3.3568791048	-0.8313416334	-0.332087
C	 0.6891452223	 3.4549742629	-0.5713533066	 0.302295
C	 1.5937949727	 4.4855049818	-1.0953146274	-0.231011
O	 1.1811950215	 4.5177093086	 0.2661865036	-0.251289
C	 1.198780063	 2.0786405151	-0.2111833215	 0.263513
O	 2.341420756	 1.7291902631	-0.0919567225	-0.276047
H	-2.1335066205	 1.5864080791	-0.4961317422	 0.142142
H	-1.5389450272	 2.358578249	 0.973821426	 0.153521
H	-0.9885888009	 3.2272356409	-1.9038428684	 0.127258
H	-1.3177507992	 4.2677160156	-0.5132251532	 0.135142
H	 2.6386269974	 4.2289147255	-1.2599486416	 0.141712
H	 1.1793513372	 5.2670722906	-1.7311363469	 0.124061
