16
gdb 131488	3.90402	1.21892	1.05565	3.3321	71.13	-0.2316	-0.0031	0.2285	1123.994	0.126839	-434.074465	-434.067059	-434.066115	-434.106718	28.419	
O	 0.1080303204	 1.4310006701	 0.1785143783	-0.426434
C	 0.0162669625	 0.0526365475	 0.0785612848	 0.142459
C	-0.4710679841	-0.8049024372	 1.2025300258	-0.33365
C	-1.3346414386	-0.6557801398	-0.0522593285	-0.182429
C	-2.5632528478	 0.1446133695	-0.0105281726	 0.400582
N	-2.6692733255	 1.2691724886	 0.6968279576	-0.325639
N	-3.9277270599	 1.6834831332	 0.4048636005	-0.175458
C	-4.5145767412	 0.8127771359	-0.4353182408	 0.020258
N	-3.68679997	-0.1711291854	-0.7250760819	-0.314793
H	-0.739296835	 1.7666672441	 0.5140969035	 0.298223
H	 0.8162243491	-0.3353957974	-0.5441352317	 0.10881
H	-0.0073395318	-1.7694001257	 1.380105845	 0.115428
H	-0.8315256631	-0.2955457236	 2.0901331751	 0.128217
H	-1.4021811312	-1.5020317218	-0.724811503	 0.106306
H	-4.2913661568	 2.5253402904	 0.8197482743	 0.28592
H	-5.5244886371	 0.9316724117	-0.7982961764	 0.152202
