20
gdb 86621	2.63015	1.33801	1.21873	1.4532	74.39	-0.2521	0.0687	0.3207	1138.771	0.171222	-440.238584	-440.229678	-440.228734	-440.272302	33.562	
C	 0.4239647849	 1.4107174322	-0.3339332597	-0.4038
C	 0.0927909826	-0.0212036083	 0.0220668453	 0.114869
O	 0.81768678	-1.0012502822	-0.7796021806	-0.321029
C	 1.2777745896	-1.7103100268	 0.3913925986	 0.057579
C	 2.7781842995	-1.8527278836	 0.4286073765	-0.022857
C	 3.5599983065	-2.0902875489	-0.8021910762	-0.247072
N	 3.6089616836	-0.768038926	-0.137747632	-0.346047
C	 0.6701020368	-0.6305121297	 1.3333489952	 0.062389
O	 1.5634277416	 0.1408056875	 2.0902434747	-0.432418
H	 1.4742608342	 1.6462461667	-0.1412196697	 0.1157
H	 0.2135223502	 1.5918474749	-1.3923335147	 0.128728
H	-0.1867798386	 2.0965621251	 0.2615167116	 0.129338
H	-0.9866912536	-0.1975853687	-0.0770138979	 0.079765
H	 0.7970800058	-2.6943153269	 0.4790582688	 0.081842
H	 3.1559857508	-2.2521156325	 1.3676207066	 0.107445
H	 4.4793967442	-2.6658814469	-0.7559240498	 0.122634
H	 3.0156043147	-2.1539171779	-1.739644485	 0.132035
H	 2.9837323495	-0.1667081427	-0.6750402179	 0.240595
H	-0.0894993547	-0.9930409275	 2.0290338485	 0.093577
H	 2.4037748023	 0.2096289521	 1.6201336977	 0.306728
