19
gdb 126970	3.08197	1.04721	0.79461	3.49	79.43	-0.216	0.0135	0.2295	1452.4186	0.159108	-419.209664	-419.200323	-419.199379	-419.244302	33.73	
C	 0.0166873632	 1.5112894102	 0.0389311255	-0.402967
C	-0.0820672045	-0.0039351275	-0.0930656876	-0.105986
N	 0.7574482803	-0.4795474875	-1.1886927066	-0.394101
C	 0.8629967214	-1.8325938856	-1.4151090423	 0.400967
N	 0.4302342492	-2.7216519389	-0.5436412731	-0.242804
O	 0.7818168722	-3.9673949868	-1.0875779327	-0.188488
C	 1.3908576441	-3.7645096973	-2.2630799342	 0.009547
C	 1.4879860893	-2.4452814674	-2.5561180283	 0.062846
C	 2.0969396625	-1.7619292453	-3.7368409268	-0.522997
H	 1.0497052508	 1.822341013	 0.2203591506	 0.128728
H	-0.3356486821	 2.0144992489	-0.8696234986	 0.112127
H	-0.6018904789	 1.8621654669	 0.869422128	 0.125681
H	 0.2654391521	-0.4943293558	 0.8212370641	 0.137807
H	-1.1300917891	-0.3128204907	-0.2278714189	 0.10568
H	 0.6945282417	 0.0721343736	-2.0325662644	 0.234833
H	 1.7112494637	-4.6525743117	-2.7877410256	 0.142217
H	 1.3534889658	-1.1929019295	-4.3097993173	 0.126441
H	 2.8786488514	-1.0563891306	-3.431810524	 0.137057
H	 2.548895157	-2.4849970279	-4.4205983479	 0.133411
