18
gdb 48917	3.05767	1.48885	1.27853	2.2857	76.23	-0.225	-0.0362	0.1888	1031.1054	0.149167	-401.895223	-401.88794	-401.886996	-401.927257	28.315	
O	-0.0104689572	-0.1067268299	 0.0274614116	-0.246899
C	 0.0087875337	 1.1001122669	 0.0090931572	 0.021412
C	 1.2587084918	 1.9133927645	 0.0034239627	 0.218297
C	 2.7156705135	 1.4501078101	 0.0183839209	-0.216214
N	 2.8864742047	 2.97454618	-0.0042515563	-0.167051
C	 1.720089642	 3.0061523376	-1.0206034119	-0.014591
C	 0.9867551016	 4.3216768746	-0.8116022703	-0.243685
C	 0.9784654929	 4.3456039972	 0.740859014	-0.243684
C	 1.709316211	 3.0372698245	 0.9981254712	-0.0146
H	-0.9396191405	 1.6881207725	-0.0051904964	 0.06813
H	 3.0961813343	 0.9808615725	 0.9287405274	 0.109007
H	 3.1058231912	 0.9530264808	-0.8729161398	 0.109007
H	 1.9873419073	 2.6999865691	-2.0337073891	 0.084029
H	 1.5450094511	 5.156250081	-1.2442372397	 0.11889
H	-0.0130532287	 4.318108127	-1.2544989856	 0.107519
H	 1.5321926361	 5.1932109774	 1.1535090796	 0.118888
H	-0.02601591	 4.3555021661	 1.1729527036	 0.107517
H	 1.9656905354	 2.7625235481	 2.0229812208	 0.084027
