18
gdb 102043	2.5175	0.97985	0.8428	2.3767	70.79	-0.258	-0.0351	0.223	1427.0161	0.144741	-476.222109	-476.211706	-476.210761	-476.258958	35.309	
C	 0.2247405398	 1.3355930286	-0.1803525059	-0.231044
O	 0.3580294408	-0.0852197471	-0.068664406	-0.228112
C	 0.5625222885	-0.5671790678	 1.169025162	 0.382376
N	 0.6420945845	 0.2016446241	 2.1775567767	-0.524179
C	 0.6594980094	-2.0848256735	 1.1389283944	-0.222249
C	 1.9988291498	-2.5708724983	 1.7360276393	-0.074009
O	 2.0475695155	-3.9757049467	 1.8662794669	-0.406941
C	-0.4947016918	-2.6998455777	 1.9271423032	 0.186972
O	-1.3050254215	-3.4516409728	 1.4602288468	-0.241526
H	 1.1277513038	 1.837144256	 0.1773117619	 0.140797
H	 0.0676840299	 1.5321492458	-1.2412297161	 0.131837
H	-0.6249833546	 1.6899956003	 0.4088373873	 0.142959
H	 0.7967117453	-0.3191307012	 3.0376281504	 0.225748
H	 0.5654523169	-2.4234898404	 0.1039126427	 0.111008
H	 2.8271488262	-2.1767749323	 1.1297160176	 0.114721
H	 2.1218180162	-2.1751232348	 2.7494982332	 0.118655
H	 1.9499472666	-4.368819633	 0.992435214	 0.293289
H	-0.5296806054	-2.3947688693	 2.9977234417	 0.079698
