21
gdb 72640	2.00796	1.93265	1.56497	1.5855	82.68	-0.2381	0.0218	0.2598	1023.3342	0.182249	-387.09822	-387.089677	-387.088732	-387.130643	33.944	
C	-0.4508629891	 1.3668508628	 0.0599788197	-0.460668
C	 0.0661727867	-0.0554222888	-0.0383901049	 0.398499
C	 0.9601089679	-0.3364808497	-1.2629671883	-0.31084
C	 1.9922677405	-1.300127442	-0.7315146516	-0.073587
C	 1.8841926797	-1.5020829554	 0.5811040172	-0.126271
C	 0.7498361437	-0.7314568445	 1.2070402504	 0.197594
C	 1.1463358336	 0.0820942242	 2.4311385085	-0.480434
C	-0.5657995785	-1.5459109052	 1.2885317868	-0.112413
O	-1.0270432895	-1.0153204978	 0.0331036336	-0.330868
H	 0.3751326045	 2.0839200965	 0.1131964459	 0.114957
H	-1.0521451138	 1.6059348292	-0.8237485079	 0.1256
H	-1.0846875231	 1.4992969833	 0.9412280685	 0.117979
H	 0.3495448461	-0.7679158168	-2.0653160161	 0.119922
H	 1.4210521227	 0.5750843727	-1.667495976	 0.097979
H	 2.7364486768	-1.7647759734	-1.3698233868	 0.093556
H	 2.5233433807	-2.1547856788	 1.1679605146	 0.089443
H	 1.9649921469	 0.7722270675	 2.2019494014	 0.120276
H	 0.3061365166	 0.6658086883	 2.8199250475	 0.117477
H	 1.4895836487	-0.5775154875	 3.2367565876	 0.117525
H	-0.4727068887	-2.638047577	 1.2673606434	 0.097424
H	-1.2233394122	-1.2572919377	 2.1216312863	 0.086852
