18
gdb 19529	3.41713	1.87112	1.73324	0.7713	67.02	-0.2159	0.0802	0.2961	859.3141	0.154709	-384.909368	-384.901813	-384.900869	-384.941335	27.958	
C	 0.3022373601	 0.8550992977	-0.4631402304	-0.236236
O	-0.3802468474	-0.0965631971	 0.3378868877	-0.239769
C	 0.4234065414	-0.6179629445	 1.3446824389	 0.076832
C	 0.2033432569	-2.0489754629	 1.7728592326	-0.147957
C	-0.5624400851	-2.9631374169	 0.8278426373	-0.237994
C	 0.1812406243	-2.8239825354	-0.5209438999	-0.070796
O	 1.4632583654	-2.2397250091	-0.2492336033	-0.261719
C	 1.463959584	-1.6726875963	 1.0307329883	 0.055267
H	 1.1684479577	 0.4036073379	-0.9619350174	 0.130081
H	-0.4088914048	 1.2092690953	-1.2131910481	 0.12391
H	 0.6418731072	 1.7129233764	 0.1363658086	 0.104693
H	 0.6749528459	 0.0917153983	 2.1370342207	 0.080947
H	 0.1988419456	-2.2789729903	 2.8318794128	 0.091313
H	-0.5137633176	-3.9880311754	 1.208252991	 0.105914
H	-1.6159636048	-2.6902080401	 0.7261030914	 0.117008
H	 0.3525285697	-3.7858356412	-1.0159334149	 0.100242
H	-0.3771278181	-2.1731867877	-1.199695275	 0.111215
H	 2.4544802094	-1.6441833488	 1.4716540697	 0.097048
