17
gdb 113750	3.56382	0.86456	0.76444	2.9852	69.59	-0.2675	0.0018	0.2693	1451.6518	0.135145	-455.108923	-455.09931	-455.098366	-455.144666	33.819	
O	-0.046273207	 1.373981387	-0.6559278096	-0.419444
C	 0.039870267	 0.2250623372	 0.1676789909	-0.0647
C	-1.3002585759	-0.4688638145	 0.2582430309	-0.041146
N	-1.7199957883	-1.2028896144	-0.9516766031	-0.3389
C	-1.4993749288	-1.941402617	 0.2976106292	-0.062777
C	-0.3378945961	-2.926739194	 0.3023097131	-0.011065
O	 0.3581901411	-2.9603951987	 1.5339449492	-0.409038
C	-0.8213036525	-4.2722341108	-0.0761770798	 0.255195
N	-1.2276134489	-5.3231831773	-0.3323678763	-0.313049
H	-0.3345949321	 1.0670592892	-1.5233976932	 0.290846
H	 0.8122563035	-0.4679816087	-0.1920498625	 0.094796
H	 0.3472176799	 0.5747566493	 1.1581003894	 0.120949
H	-2.0646008437	 0.1206235761	 0.7621449396	 0.100646
H	-2.7127656068	-1.0883907091	-1.1330586559	 0.246173
H	-2.3758916199	-2.2964070754	 0.8381206827	 0.103521
H	 0.3906547028	-2.6113807754	-0.4483945138	 0.151119
H	-0.2383120742	-3.2907045235	 2.215688759	 0.296873
