23
gdb 38971	2.79406	1.60033	1.18261	0.3424	89.18	-0.2418	0.0926	0.3344	1130.8603	0.209487	-351.152874	-351.145286	-351.144342	-351.184524	31.989	
C	 0.0445647336	 1.472512035	 0.0951311617	-0.345731
C	 1.3721909217	 0.7734536588	-0.0242050747	-0.098443
C	 1.7250290621	 0.1549388142	 1.3335478714	-0.254151
C	 0.4176706773	-0.7071296969	 1.2591358226	-0.041925
C	 0.6691731133	-2.2115740111	 1.0802766291	-0.210857
C	-0.3795200803	-2.8670270192	 0.1697608352	-0.190989
C	-0.3458455983	-2.23205749	-1.2286030919	-0.189145
C	-0.6920079825	-0.7339779294	-1.1682491603	-0.314621
C	 0.0561869958	-0.0194605407	-0.0725255243	 0.403609
H	-0.2496994101	 1.930504422	 1.038576832	 0.096177
H	-0.2728438874	 2.0270865168	-0.7836626964	 0.102707
H	 2.0712466993	 1.0069429649	-0.8195128362	 0.077685
H	 2.6260807046	-0.4630426118	 1.3259314737	 0.097071
H	 1.7996788874	 0.8662737567	 2.1633353833	 0.090419
H	-0.3070977218	-0.5421259357	 2.066955365	 0.054684
H	 1.6544005039	-2.3622872939	 0.6184608481	 0.089733
H	 0.7069611919	-2.705271326	 2.0581234907	 0.088529
H	-0.1917109508	-3.9443533556	 0.099693953	 0.089
H	-1.3826910312	-2.7518505184	 0.6042590781	 0.090293
H	 0.6588116434	-2.3636467293	-1.6526261187	 0.092592
H	-1.0408202029	-2.7446015133	-1.9029429073	 0.086974
H	-0.5104031001	-0.2513479056	-2.1365204857	 0.090808
H	-1.771020549	-0.6347449716	-0.9761605185	 0.09558
