15
gdb 48001	3.24945	0.72857	0.62554	3.7889	81.59	-0.2624	-0.0694	0.193	1688.1381	0.109858	-420.598992	-420.589836	-420.588892	-420.634608	31.037	
O	-0.0302750868	-0.1045088685	 0.5886956458	-0.228373
C	 0.0345382564	 1.0041083757	 0.1084052884	 0.021202
C	 1.2320831091	 1.8001327256	 0.0563120492	 0.019249
C	 2.2210062084	 2.4943443464	-0.0023038985	 0.125018
C	 3.421488455	 3.2667475813	-0.0585643022	-0.197464
C	 3.7127942192	 4.1386429501	-1.2554467754	-0.293123
C	 3.3899612804	 4.8065215875	 0.0578835698	-0.10248
C	 2.0893978577	 5.5100614133	 0.2045077243	 0.165856
O	 1.9408283356	 6.5115886948	 0.8566278655	-0.254985
H	-0.8539566071	 1.4952729408	-0.3381569364	 0.100644
H	 4.2802558028	 2.8112334611	 0.4248461537	 0.142128
H	 4.7362962947	 4.1863642031	-1.6069113764	 0.146079
H	 2.9567095069	 4.1729609471	-2.0319680729	 0.145509
H	 4.2034073142	 5.2498467429	 0.6207419838	 0.126083
H	 1.2460286934	 5.0446694689	-0.3518692987	 0.084657
