17
gdb 127266	5.85472	0.99361	0.91464	2.9339	77.25	-0.2382	0.0016	0.2398	1293.4332	0.137182	-414.154062	-414.145882	-414.144938	-414.188566	29.33	
C	-0.2406311001	 1.4550310374	 0.0388776913	-0.329328
N	-0.0262868251	 0.0274322211	-0.0757679444	 0.081624
C	-0.0443328151	-0.7569768004	-1.1801917262	-0.199898
C	 0.2208680487	-2.0206414249	-0.7033138572	 0.359745
N	 0.3839825776	-1.9421741161	 0.6473671101	-0.261692
N	 0.2343471089	-0.7033078009	 1.0254175163	-0.146357
N	 0.3113240308	-3.1997632681	-1.4643214613	-0.194573
C	 1.291260716	-4.2038599232	-1.009243448	-0.21989
C	-0.1584837651	-4.4390664862	-0.8172017589	-0.219866
H	 0.5056751819	 2.0056143166	-0.5405242886	 0.148161
H	-1.2405273331	 1.7251178601	-0.3119664749	 0.148174
H	-0.1435388942	 1.7103536521	 1.0940867045	 0.170329
H	-0.2336920074	-0.3815228441	-2.170721422	 0.145651
H	 1.8288107909	-4.7046899436	-1.8090838712	 0.117077
H	 1.8735818818	-3.9583899879	-0.1263753596	 0.141818
H	-0.5441061975	-4.3507279904	 0.19387872	 0.141973
H	-0.6980982391	-5.1146547013	-1.4744184499	 0.117053
