19
gdb 48626	3.35038	1.4075	1.19307	3.0027	75.04	-0.2443	-0.0302	0.2141	1072.339	0.160169	-423.023153	-423.015381	-423.014436	-423.055646	30.289	
O	-0.4296285026	 0.4545566945	-0.6358369085	-0.266431
C	 0.1403718061	 0.9948859281	 0.2782653551	 0.090939
C	 1.4183661809	 1.7757074829	 0.1055032483	 0.341124
C	 2.6158111274	 1.1106825115	-0.6364776346	-0.24997
C	 2.997593417	 2.5554916754	-1.0634689216	-0.035426
C	 1.4791366041	 2.8887115568	-0.9891837975	-0.282388
C	 3.7246478125	 3.225725597	 0.1163679548	-0.228135
C	 2.7731749784	 3.3068250545	 1.3315324798	-0.077247
O	 1.8287521475	 2.235046089	 1.3828067998	-0.325515
H	-0.2380035234	 0.9570878266	 1.3228680062	 0.090578
H	 3.3145805978	 0.5514185886	-0.0094100082	 0.09943
H	 2.2678899801	 0.4993065266	-1.4716625541	 0.119383
H	 3.52203327	 2.6990788875	-2.0102011366	 0.06974
H	 0.9384819225	 2.5523229931	-1.8753615595	 0.126705
H	 1.1574909982	 3.896672625	-0.7178597817	 0.10405
H	 4.6270858374	 2.6527408785	 0.3580479863	 0.106704
H	 4.0463502914	 4.2407657575	-0.142389829	 0.102296
H	 3.320950488	 3.2768127619	 2.2771502751	 0.11248
H	 2.2277357567	 4.260094565	 1.3028364458	 0.101686
