19
gdb 87651	2.79054	1.19038	1.01015	2.213	76.31	-0.2408	-0.0264	0.2144	1250.0984	0.155908	-423.023346	-423.013988	-423.013044	-423.057639	34.456	
C	 0.0639423313	 1.5384920103	-0.2573646224	-0.418413
C	 0.0533894102	 0.048780901	-0.0386490309	-0.018135
O	 1.3345244345	-0.6106030151	 0.0166795022	-0.295298
C	 0.5425427726	-0.5848332669	 1.1888562191	 0.409897
C	 0.9858755958	 0.0662699977	 2.5106775924	-0.446742
C	 0.2621303413	-1.0945332421	 3.221923883	 0.39488
O	-0.0786561902	-1.2922593907	 4.3516183244	-0.296855
C	 0.0381940559	-1.8590116295	 1.9005402638	-0.185199
C	-1.3468139609	-2.4279487548	 1.6224223176	-0.413894
H	 0.8162525891	 2.0219382549	 0.3709146214	 0.129899
H	 0.2910983865	 1.7702987034	-1.3029602811	 0.134316
H	-0.9169943492	 1.9671175772	-0.0245505771	 0.124794
H	-0.6876467405	-0.5014448025	-0.6215177875	 0.093894
H	 2.0710873374	 0.040559408	 2.6575647281	 0.145075
H	 0.6216428809	 1.0706099881	 2.7425469793	 0.135338
H	 0.8037502195	-2.6428251603	 1.8122100068	 0.118732
H	-2.1132651165	-1.6486052518	 1.6771954022	 0.121262
H	-1.3945384654	-2.8859507119	 0.6297302135	 0.127254
H	-1.5951660723	-3.193760855	 2.362955715	 0.139196
