13
gdb 10579	2.70803	1.97733	1.37807	4.5939	64.63	-0.2862	-0.0318	0.2544	892.5884	0.094628	-357.625179	-357.617403	-357.616458	-357.657255	27.423	
C	-0.171714996	 1.4513521038	-0.0668837883	-0.333874
N	 0.0571357155	 0.0097079663	 0.0100979951	-0.09631
C	 1.3906065286	-0.4895297764	-0.1933372209	-0.250829
C	 0.7660061477	-0.525072107	 1.1886571152	 0.041061
C	 1.3099618724	 0.3783704077	 2.1813806183	 0.260616
N	 1.726178361	 1.1197665703	 2.9643354013	-0.324498
C	 0.2457500774	-1.7689071021	 1.717589356	 0.271369
N	-0.1546127651	-2.7716125715	 2.1275914065	-0.316794
H	 0.6718259808	 2.0546302808	 0.295835049	 0.137806
H	-0.3600625287	 1.697605879	-1.1148177844	 0.148443
H	-1.0617153666	 1.7006102421	 0.5154342614	 0.155155
H	 1.4808577123	-1.4253630725	-0.7363515318	 0.159914
H	 2.2084126408	 0.2188323395	-0.3187865275	 0.147941
