16
gdb 94134	1.93687	1.5436	1.28364	4.834	74.	-0.2662	-0.0152	0.2509	1086.1468	0.124325	-396.927553	-396.918775	-396.917831	-396.961089	31.63	
C	 0.0077033385	 1.5796187949	-0.0994193752	-0.407634
C	 0.0584649397	 0.0714834544	 0.0132604459	 0.028184
N	 1.0261728912	-0.6207280669	-0.8640062438	-0.312324
C	 1.3658072279	-1.5962739036	 0.1844933898	-0.189911
C	 0.7867401001	-0.6012912092	 1.2558173424	-0.035351
C	 1.814393335	 0.242456547	 1.859325991	 0.291778
N	 2.6325517883	 0.9147944505	 2.3205299258	-0.328137
C	-0.0870362814	-1.175203488	 2.2704055875	 0.250117
N	-0.8071868989	-1.6471562837	 3.0406300115	-0.323954
H	 1.0056688108	 2.0134488644	-0.0060510206	 0.154088
H	-0.3989089513	 1.8585652117	-1.0770389053	 0.130279
H	-0.6431694244	 2.0057135185	 0.6706571759	 0.136241
H	-0.9542385068	-0.3541995407	-0.0323087544	 0.099699
H	 0.6423877646	-1.0097532242	-1.7179040683	 0.234505
H	 0.7819056515	-2.5250983668	 0.1775771691	 0.127826
H	 2.4291465852	-1.8274572284	 0.2784605686	 0.144594
