19
gdb 85091	1.87756	1.61202	1.17294	2.8769	82.47	-0.2356	-0.0241	0.2115	1164.5922	0.155759	-385.871222	-385.861458	-385.860514	-385.905543	36.408	
C	-0.6520046884	 1.2695019601	-0.0058853214	-0.417693
C	 0.1341389972	-0.026832743	-0.1215184568	-0.003758
C	 1.5226055677	 0.004846923	-0.8280953108	-0.375257
C	 2.0736043366	-0.8731013113	 0.2993023575	 0.387247
O	 3.061874093	-1.5245376887	 0.4489145764	-0.29195
C	 0.7995472391	-0.6495139236	 1.1799868505	-0.022854
C	 1.1093048341	 0.3563128117	 2.3065856388	-0.438679
C	 0.1679042799	-1.8466978662	 1.695309254	 0.285995
C	-0.3607031772	-2.8464053249	 2.1053692818	-0.446206
H	-0.0502527714	 2.0780372169	 0.4205849927	 0.117996
H	-0.9917417427	 1.5979157615	-0.9938479908	 0.123121
H	-1.5391100531	 1.1409788864	 0.6229254963	 0.127687
H	-0.4918427585	-0.7973490239	-0.5784418911	 0.095702
H	 1.5994612083	-0.4089565135	-1.8361230819	 0.134226
H	 1.9886575962	 0.9971229764	-0.8267506993	 0.131415
H	 1.6370335506	 1.2356494725	 1.9251358425	 0.118611
H	 0.1863573559	 0.6885682926	 2.789477298	 0.132899
H	 1.7421545332	-0.1204429202	 3.058768472	 0.145475
H	-0.8199670505	-3.7315478458	 2.4702710216	 0.196024
