18
gdb 81058	2.59445	1.57879	1.17101	4.3847	72.67	-0.2513	0.0146	0.2659	1070.5357	0.148259	-439.069352	-439.060932	-439.059988	-439.102636	32.286	
N	 0.1366418385	 1.1127462975	 0.4005561502	-0.533523
C	-0.0456463869	-0.1085785512	-0.1624856111	 0.277848
O	 0.8374672294	-0.7040697697	-0.7671385752	-0.382123
C	-1.3987165151	-0.7357722077	-0.0230937187	 0.207164
C	-2.5616904959	-0.5985556448	 0.9991781342	-0.307943
C	-2.9981164849	-1.7335215228	 0.0196225363	-0.095042
C	-2.4917601076	-0.8345717564	-1.1437008632	-0.250229
C	-1.5438596044	-2.2756060794	 0.1440274007	 0.163268
O	-1.0343265677	-3.085695768	-0.8725423972	-0.457096
H	 1.034468932	 1.5615630748	 0.3156319546	 0.264107
H	-0.6009749914	 1.5793066685	 0.8980051951	 0.265923
H	-2.346403911	-0.8878998071	 2.0320070926	 0.099418
H	-3.1532999545	 0.3192813718	 0.9525488717	 0.094282
H	-3.9253562728	-2.3046567213	 0.0594934659	 0.081117
H	-3.0570088906	 0.0800500813	-1.340402029	 0.087983
H	-2.1918962092	-1.3449761019	-2.0567373764	 0.123481
H	-1.2749298304	-2.6569846584	 1.1395609047	 0.063222
H	-0.1644984476	-2.7171095752	-1.0870024752	 0.298144
