17
gdb 17123	6.66362	1.11517	1.02046	3.9604	69.81	-0.2444	0.04	0.2844	1138.4756	0.142712	-363.873466	-363.865847	-363.864903	-363.905992	28.39	
O	-0.0518735561	-0.0670612584	 0.1030579574	-0.359021
C	-0.0537379488	 1.1327239053	 0.0439103456	 0.427841
C	-1.1202243594	 2.2554774866	 0.0791454658	-0.408687
C	 0.0774729337	 3.2498164378	-0.0427220146	 0.048233
N	 0.9495684019	 2.0640826776	-0.077817748	-0.325356
C	 0.1323523722	 4.1312564906	-1.260007669	 0.021717
C	-0.3787013012	 5.548000134	-1.1813686381	-0.267746
C	 1.1000646807	 5.2896763723	-1.3127417473	-0.27535
H	-1.8032225963	 2.2526021847	-0.7725029553	 0.130012
H	-1.6903853333	 2.3071843159	 1.0080492192	 0.130156
H	 0.2274358281	 3.8538805862	 0.8616599973	 0.077732
H	 1.9524375737	 1.9644647958	-0.1393434123	 0.247461
H	-0.0383755726	 3.6021609326	-2.1941529694	 0.088473
H	-0.9132984519	 5.9466930497	-2.0357951513	 0.118502
H	-0.7481462925	 5.9008980313	-0.2238993594	 0.115198
H	 1.7233820316	 5.4707900816	-0.4426406974	 0.112607
H	 1.5826040101	 5.5120850764	-2.2576694531	 0.118227
