23
gdb 95579	2.25253	1.52712	1.10859	1.6651	86.3	-0.243	0.01	0.253	1207.5862	0.207255	-388.307801	-388.298674	-388.29773	-388.341093	36.082	
C	-0.0973995247	 1.5572002814	 0.0267853537	-0.40269
C	 0.0185555878	 0.0266335667	 0.0038754907	 0.026064
C	 0.6522228233	-0.4376617088	-1.3198421693	-0.191312
C	 0.6466886975	-1.9574175287	-1.573997489	-0.257928
C	 1.600929779	-2.7613282862	-0.7222232286	-0.05032
C	 1.6236697182	-2.779144964	 0.6122450974	-0.079922
C	 0.7113116787	-1.9777365715	 1.5131992294	-0.277373
C	 0.7664477974	-0.4547026203	 1.2701453031	 0.134418
O	 2.1087281583	 0.0195631918	 1.3056917697	-0.443609
H	 0.8975019324	 2.0117166825	 0.0490237539	 0.131479
H	-0.6283466652	 1.9300419869	-0.855075444	 0.102725
H	-0.6392892767	 1.8998492757	 0.9148084543	 0.106288
H	-0.9958728866	-0.3970423482	 0.057226467	 0.061645
H	 0.104723152	 0.0437986772	-2.1389887329	 0.092326
H	 1.6804826312	-0.0587417424	-1.3818715678	 0.096182
H	-0.3774816763	-2.3333894724	-1.427839476	 0.108085
H	 0.8799717033	-2.1348558534	-2.6288170797	 0.098757
H	 2.3112697298	-3.3897508629	-1.2552909201	 0.088556
H	 2.3532574034	-3.4165994564	 1.105962309	 0.089846
H	-0.3290209251	-2.3145398456	 1.4025322559	 0.105808
H	 0.9889792432	-2.1627635751	 2.5550519104	 0.104707
H	 0.2785730583	 0.0262357509	 2.1271681141	 0.077688
H	 2.626130081	-0.5682117172	 0.7418505988	 0.27858
