21
gdb 39767	2.92449	1.78194	1.45815	0.1784	85.55	-0.2446	0.0979	0.3425	987.9559	0.185291	-349.897025	-349.890106	-349.889162	-349.927751	30.225	
C	-0.0151902397	 1.5226533785	 0.0351795448	-0.309844
C	 1.3119089777	 0.8086271744	-0.0570168229	-0.032518
C	 0.0127564744	 0.015416604	-0.0483993495	-0.032519
C	 0.1148217612	-0.6825341676	-1.4214894746	-0.122183
C	 1.6128992688	-1.1592334859	-1.3766737393	-0.211462
C	 1.8728341133	 0.3908407347	-1.4331520184	-0.122188
C	 0.6461670692	 0.4134359857	-2.3596756049	 0.457501
C	 0.684234562	 0.3348220742	-3.8530790287	-0.37797
C	-0.0155948279	 1.4885958669	-3.157389839	-0.371934
H	-0.2553548756	 1.9266437325	 1.0144511256	 0.100536
H	-0.3859565296	 2.120994018	-0.7856403634	 0.121341
H	 1.9854661241	 0.81772545	 0.7925128991	 0.082392
H	-0.2948402086	-0.5745348159	 0.8076406416	 0.082392
H	-0.6985429375	-1.3446784975	-1.7212222565	 0.0569
H	 1.9402550889	-1.6855986649	-0.4756806883	 0.083689
H	 1.9301184258	-1.6885822497	-2.2782481344	 0.094416
H	 2.8304939287	 0.8100142255	-1.7446297085	 0.0569
H	 1.6213459224	 0.5421106905	-4.3610561092	 0.109718
H	 0.0668218399	-0.4070377571	-4.3507065455	 0.109718
H	-1.1007547607	 1.5178981127	-3.1893396916	 0.112558
H	 0.4537868533	 2.467035861	-3.1996824964	 0.112558
