23
gdb 115877	2.44207	1.39342	1.06304	1.4494	85.57	-0.2459	0.0868	0.3327	1260.3053	0.205863	-388.299472	-388.290175	-388.28923	-388.333204	35.84	
C	-0.1141375824	 1.5592890562	 0.0671973623	-0.382326
C	 0.0032072677	 0.0340033662	-0.0036699927	-0.189475
C	 0.7560988835	-0.5645583807	 1.179531481	 0.084353
O	 0.056696968	-0.2380482107	 2.3830111452	-0.272534
C	 0.4175248091	-1.1841537574	 3.3838995168	-0.096168
C	 0.6728892486	-2.4803725816	 2.6383171541	-0.107134
C	-0.350338026	-2.8367768731	 1.5880427139	-0.333118
C	 0.9019402355	-2.08712921	 1.1967714531	 0.334537
C	 1.9489958605	-2.7200831628	 0.3143738076	-0.492107
H	 0.8745819625	 2.0319179054	 0.0771684315	 0.109282
H	-0.6629129185	 1.9528523987	-0.7938775521	 0.106485
H	-0.6380460839	 1.8626702472	 0.9770421523	 0.135931
H	-0.9937993219	-0.4190159891	-0.0486186227	 0.100058
H	 0.5261374301	-0.2588341632	-0.9228660671	 0.093353
H	 1.7735076599	-0.1294643207	 1.2124522816	 0.053814
H	 1.3271532186	-0.868480979	 3.9215090834	 0.088119
H	-0.4081081071	-1.2274570718	 4.1026511866	 0.104875
H	 1.2574481494	-3.2585002183	 3.116330355	 0.083794
H	-0.413912735	-3.8772102534	 1.2876525719	 0.105406
H	-1.2987876468	-2.308941978	 1.5987199496	 0.118676
H	 1.7105063758	-2.5914519042	-0.7480338723	 0.121097
H	 2.9370066779	-2.2770069757	 0.4876473666	 0.116254
H	 2.0275465547	-3.7950209542	 0.5038037643	 0.116826
