25
gdb 95798	2.15691	1.45493	1.03669	1.584	88.22	-0.2564	0.061	0.3174	1298.2479	0.229704	-389.524236	-389.514363	-389.513419	-389.558019	38.786	
C	-0.0837441007	 1.5770435439	 0.0127957893	-0.403261
C	 0.0227160568	 0.0494105345	 0.0003545512	 0.019267
C	 0.6884630609	-0.4764068231	-1.2840264939	-0.200319
C	 0.7827354257	-2.0085233636	-1.2974886625	-0.213292
C	 1.4848411217	-2.5406298134	-0.0403648752	-0.20032
C	 0.823612358	-2.0265096082	 1.2510667545	 0.019262
C	 1.5139624343	-2.5642009437	 2.5078313693	-0.40326
C	 0.755665366	-0.4831379409	 1.2516709536	 0.132608
O	 2.0460090317	 0.1106414832	 1.4109421307	-0.44244
H	 0.9098791703	 2.0333964082	 0.0367202745	 0.122509
H	-0.6108177359	 1.9427541623	-0.874639264	 0.103609
H	-0.6280155276	 1.92842568	 0.8960324548	 0.108432
H	-0.994210102	-0.3687459524	 0.0379506122	 0.067171
H	 0.1325358198	-0.1202316399	-2.1588066488	 0.093425
H	 1.6958428402	-0.0428676602	-1.3796929141	 0.08214
H	-0.2309357818	-2.4295037418	-1.3471252372	 0.094433
H	 1.3041722437	-2.3503885905	-2.1988146534	 0.090709
H	 1.4891479394	-3.6365941239	-0.040252588	 0.093426
H	 2.5445515066	-2.242732077	-0.0543175671	 0.082138
H	-0.2180545566	-2.3805369926	 1.2500300701	 0.067173
H	 2.537494355	-2.1853707947	 2.578454857	 0.122507
H	 0.9846133695	-2.2514802449	 3.4143648361	 0.108433
H	 1.5501983749	-3.6586043965	 2.5000926899	 0.103609
H	 0.2072739482	-0.1569618513	 2.1442202823	 0.07254
H	 2.587536902	-0.1362539537	 0.6545025588	 0.279499
