20
gdb 58967	2.66639	1.39478	1.18774	2.0366	74.18	-0.2241	0.0518	0.2759	1131.8942	0.170354	-440.23183	-440.222846	-440.221902	-440.265512	33.929	
C	-0.028931365	 1.5479697073	 0.0153580178	-0.42691
C	-0.0262937729	 0.0194229091	 0.0123212544	 0.045913
O	 0.8281966929	-0.5226665648	 1.0147954771	-0.42985
C	-1.4316510676	-0.550183846	 0.1235030173	 0.309266
C	-2.1773617582	-0.5087583317	 1.4783411912	-0.129623
O	-2.5179678254	-1.9091546866	 1.3845256636	-0.287458
C	-1.8112302417	-2.0541607909	 0.1377916665	 0.040343
C	-2.7130855582	-1.7790750816	-1.0820144028	-0.186096
N	-2.2737054717	-0.3501245258	-1.0811127918	-0.377467
H	 0.9891081081	 1.9308225514	-0.0954177562	 0.126975
H	-0.6386014308	 1.9321277003	-0.8076434762	 0.133992
H	-0.440779163	 1.9390646891	 0.9552781135	 0.10583
H	 0.3884550172	-0.3318829106	-0.9392726825	 0.095108
H	 0.6666495933	-0.0482197908	 1.8368211653	 0.280277
H	-1.5512283776	-0.3157915163	 2.3605720615	 0.084955
H	-3.0606998245	 0.1421998509	 1.521989723	 0.093008
H	-1.1176059394	-2.8961276973	 0.1374524123	 0.091098
H	-2.4357256262	-2.292559243	-2.0096442052	 0.106775
H	-3.7725574748	-1.9591046873	-0.8722957229	 0.108113
H	-3.0214373944	 0.3275527346	-0.9720077158	 0.21575
