17
gdb 100628	2.13576	1.22096	0.81154	1.9236	76.12	-0.26	0.0255	0.2854	1363.1331	0.131744	-421.73875	-421.728555	-421.727611	-421.774054	37.135	
O	 0.1332584277	 1.4123161775	-0.1644781521	-0.421525
C	 0.1089499098	 0.0154557733	 0.0180184311	-0.070053
C	-1.3350719559	-0.4929592698	 0.0602145952	 0.099734
O	-2.0293628727	-0.035136569	-1.0927896171	-0.427853
C	-1.4220524047	-2.044170284	 0.1966219325	-0.418805
C	-0.7678753151	-2.5072674407	 1.4240428731	 0.333092
C	-0.2263288732	-2.86691478	 2.4336641851	-0.436147
C	-2.8092397928	-2.5110171793	 0.1226732941	 0.34232
C	-3.9453453409	-2.8933643215	 0.0609201908	-0.427845
H	-0.5500038802	 1.6020649489	-0.8206402456	 0.285881
H	 0.6474798704	-0.510794492	-0.793911097	 0.070446
H	 0.6259642579	-0.2090078545	 0.9543390613	 0.128627
H	-1.855894633	-0.0362191813	 0.9065616632	 0.121865
H	-1.6910294084	-0.5101569281	-1.8618814084	 0.286279
H	-0.8720717642	-2.4682237445	-0.6600296699	 0.127322
H	 0.2476346724	-3.1927847073	 3.3266617403	 0.205153
H	-4.951659087	-3.2288344877	 0.0091872534	 0.201509
