19
gdb 126161	3.73999	0.99422	0.90869	6.1807	76.33	-0.2773	-0.0087	0.2686	1348.2692	0.159721	-415.381424	-415.37244	-415.371496	-415.416666	32.078	
C	-0.1155415046	 1.5348428953	 0.0676572242	-0.392017
C	 0.0609933338	 0.0142341042	 0.0444805108	-0.179027
C	 0.7792149016	-0.5043028154	-1.2147543023	 0.049166
C	 2.2287312121	-0.0328310114	-1.3469955724	-0.410271
N	 0.7103857067	-1.9709499379	-1.2563011572	 0.026471
C	 1.4466443183	-2.9210729658	-0.6530125768	 0.05542
N	 0.9550331455	-4.105780171	-0.9502667915	-0.227221
N	-0.11263098	-3.862611057	-1.7531564519	-0.098705
N	-0.2723061284	-2.5943949593	-1.9422023077	-0.127271
H	 0.8421886096	 2.061093517	 0.120721778	 0.123854
H	-0.6438429441	 1.8861294103	-0.8254467887	 0.126239
H	-0.7033974601	 1.8359594115	 0.9391036259	 0.128476
H	 0.6167057416	-0.3148932168	 0.9318763925	 0.104755
H	-0.9198715789	-0.4706634788	 0.0905001215	 0.128957
H	 0.2140013915	-0.1884062368	-2.0965888983	 0.124465
H	 2.8179199149	-0.2848225457	-0.4589156481	 0.126245
H	 2.7072426962	-0.4819446141	-2.2210628347	 0.141087
H	 2.2577585968	 1.0524535335	-1.4650684636	 0.139404
H	 2.3053163774	-2.7276211318	-0.0324032498	 0.159974
