23
gdb 39495	2.11123	1.78467	1.24603	1.1624	84.6	-0.2448	0.0777	0.3225	1124.3529	0.209175	-388.273426	-388.265178	-388.264234	-388.306	33.257	
C	 0.0270362196	 1.4060520185	-0.4577271209	-0.298689
C	 1.3146261374	 0.7250386862	-0.0491992619	 0.001386
C	 2.1690500629	 1.1687354321	 1.1460822361	-0.20863
C	 1.9684371837	 0.4196222315	 2.4787545205	-0.216694
C	 0.8375281853	 1.0066404647	 3.3393621988	-0.066869
O	-0.281919808	 1.4633633522	 2.6035263397	-0.233173
C	-1.2255213899	 0.484546684	 2.2182311835	-0.070972
C	-0.7382909394	-0.5575713725	 1.2049156333	-0.251322
C	 0.0004088403	-0.0409667345	-0.0245192626	-0.004111
H	-0.3622920427	 2.1395436115	 0.2379576226	 0.129738
H	-0.1365409844	 1.6449399559	-1.5035768309	 0.09635
H	 1.9328185989	 0.4282378417	-0.8926601347	 0.076961
H	 3.2153120531	 1.039392426	 0.8490570584	 0.091806
H	 2.0412302115	 2.2436260006	 1.3197764442	 0.104957
H	 1.8145201312	-0.645987333	 2.2846791483	 0.102241
H	 2.8878851468	 0.4872631714	 3.0738545848	 0.09006
H	 0.5223174217	 0.2893890383	 4.114552558	 0.082899
H	 1.2132162988	 1.8991683561	 3.8528902123	 0.104384
H	-1.6152622435	-0.036346435	 3.1092411638	 0.084561
H	-2.0531575912	 1.0542676823	 1.7827785812	 0.108053
H	-0.1344844309	-1.3217261796	 1.7085106841	 0.101168
H	-1.6398423946	-1.0836285972	 0.8623285043	 0.097149
H	-0.0727786267	-0.750589211	-0.8456473633	 0.078745
