14
gdb 14221	4.97337	1.82047	1.65916	3.802	61.31	-0.2285	-0.0033	0.2252	790.9312	0.106122	-382.491045	-382.484517	-382.483573	-382.521503	25.227	
C	-0.0724776726	 1.4148651121	 0.0258803121	-0.504398
C	 0.0235241053	-0.0724004907	 0.002312577	 0.481936
O	-1.1551168909	-0.8388951442	-0.2999750702	-0.321245
C	-0.4355593127	-2.0037271238	 0.1884597463	-0.08103
C	 0.6021857324	-1.0811268723	 0.919269882	-0.193283
C	 1.2377654387	-0.8665040442	-0.5054421926	-0.305189
C	 0.6748030942	-2.2040585907	-0.8786782501	 0.482966
O	 1.0527461817	-3.1314103935	-1.5333818466	-0.332624
H	 0.8784301519	 1.8537537559	 0.3404485625	 0.133614
H	-0.3166274901	 1.7970309474	-0.97004811	 0.145447
H	-0.8530557195	 1.7340228699	 0.722453366	 0.141833
H	-1.0578514953	-2.7989220528	 0.5883311078	 0.108071
H	 1.0875753555	-1.088235619	 1.883546283	 0.12761
H	 2.1898732314	-0.417718244	-0.7512128571	 0.116292
