13
gdb 131768	2.69318	1.51658	0.97715	1.083	64.24	-0.2708	-0.1034	0.1674	1097.0143	0.087567	-489.814897	-489.807029	-489.806084	-489.847825	28.029	
O	 0.1118974934	 1.3841855203	-0.1951426353	-0.411812
C	 0.0271248411	 0.0010012526	 0.0017690334	-0.111894
C	-1.3822801128	-0.530978998	 0.044485162	 0.224951
N	-2.3355305187	 0.3357039993	 0.0829641337	-0.12932
O	-3.6411630255	-0.0962391292	 0.1510399738	-0.213865
N	-3.9856869162	-1.4206385203	 0.1706202908	-0.038309
C	-3.0433523877	-2.2983993021	 0.1343436831	-0.012815
C	-1.6179434098	-1.9818953696	 0.0772839211	 0.272545
O	-0.7262185807	-2.8110323372	 0.058956898	-0.328248
H	-0.688814372	 1.7883722459	 0.1606823044	 0.302412
H	 0.5601438308	-0.5075486534	-0.8108677552	 0.1485
H	 0.5219301118	-0.3246745849	 0.9337242038	 0.130372
H	-3.3657175336	-3.3356323633	 0.1522675463	 0.167482
