16
gdb 16613	3.4431	2.12467	1.46883	3.2387	71.32	-0.2354	-0.0447	0.1907	864.0288	0.131135	-346.633145	-346.626019	-346.625075	-346.664461	27.022	
C	 0.0267541918	 1.4982163537	 0.0373466072	-0.490943
C	-0.0269455056	 0.0077962446	-0.0349818839	 0.184767
C	-0.0691158657	-0.7995869625	-1.1074356353	-0.17083
C	-0.0351479666	-2.2488472782	-0.739805603	-0.080393
C	 1.2416122316	-2.6901326855	-0.0578594242	-0.275541
C	 0.0276274219	-2.2764223226	 0.7636542771	-0.151003
C	-0.0177670003	-0.8315352044	 1.2068109943	 0.345671
O	-0.0590091974	-0.4200508784	 2.3443390066	-0.336085
H	 0.9522229951	 1.8319471829	 0.5204822896	 0.139558
H	-0.0320302618	 1.9551156131	-0.9537360788	 0.119673
H	-0.7943008843	 1.8817153447	 0.652294303	 0.14413
H	-0.0691750763	-0.4662460079	-2.1401259376	 0.109039
H	-0.6103762528	-2.9704298337	-1.307541334	 0.10142
H	 1.4828000637	-3.7484309281	-0.0546963249	 0.123684
H	 2.0974943951	-2.0248752434	-0.0984580138	 0.126331
H	-0.4654279884	-3.0247468641	 1.3699891776	 0.11052
