19
gdb 81401	4.01467	1.11852	1.0658	1.0904	80.7	-0.2478	0.0493	0.2971	1178.7902	0.159761	-385.839339	-385.831211	-385.830267	-385.871661	32.492	
O	 0.1959407406	 1.3549800891	-0.2149986811	-0.458099
C	 0.0540804772	-0.0326241763	-0.049534506	 0.179969
C	 0.1681836566	-0.6136158592	 1.3967915752	-0.054875
C	-1.3355963131	-0.238270699	 1.5676377838	-0.264725
C	-1.3979908007	-0.6046661918	 0.0563203954	-0.059196
C	-1.1066574287	-2.1286759401	 0.0794666402	-0.176058
C	 0.0893495434	-2.1230870176	 1.1190866326	-0.239736
C	-2.2392457534	-2.9498769776	 0.4744013509	 0.316148
C	-3.1772329979	-3.6229880226	 0.8122360915	-0.456233
H	-0.3344842968	 1.8100815884	 0.4466204578	 0.28181
H	 0.7018680675	-0.4813942347	-0.8096012669	 0.077529
H	 0.9390227524	-0.2690843317	 2.0869182908	 0.065435
H	-1.9404872575	-0.8296843964	 2.2590195832	 0.111444
H	-1.5074062458	 0.8227042887	 1.7665307352	 0.087007
H	-2.1990126927	-0.2671584193	-0.6008332347	 0.073866
H	-0.7559098733	-2.4589258826	-0.9047337735	 0.103223
H	 1.0077890017	-2.5225705148	 0.6806064467	 0.10463
H	-0.1499511607	-2.7058748087	 2.0106387505	 0.115768
H	-4.005274409	-4.2211415738	 1.1017868685	 0.192093
