23
gdb 60372	3.1678	0.65948	0.5725	3.48	83.82	-0.2432	-0.0169	0.2264	1961.9171	0.201939	-425.444131	-425.432642	-425.431697	-425.482229	40.382	
C	 0.0792171087	 1.5682556282	 0.1120219514	-0.404077
C	 0.0305654211	 0.0407248114	 0.073201238	 0.137261
O	 0.6925613553	-0.524841963	 1.2029550313	-0.425544
C	-1.4036234719	-0.4922948205	-0.0664849411	-0.204334
C	-1.4603274484	-2.0209735391	-0.1661867026	-0.194636
C	-2.8886456131	-2.608436047	-0.1432530385	-0.063786
C	-3.7308508672	-2.1982648698	-1.3640048205	-0.408993
C	-2.7871055115	-4.1204566285	-0.0988870435	 0.161311
O	-3.1652099123	-4.819922463	 0.8047479814	-0.250724
H	 1.110448785	 1.9118258555	 0.2287360654	 0.126189
H	-0.331867643	 2.003450531	-0.8046331954	 0.116484
H	-0.5078698745	 1.9542212504	 0.9552621581	 0.106933
H	 0.6192728697	-0.3120730276	-0.7835802723	 0.089064
H	 0.2587898916	-0.1863421304	 1.9946174103	 0.276815
H	-1.9882783821	-0.1562737575	 0.8033849537	 0.086784
H	-1.8648732927	-0.0267364836	-0.9454892126	 0.098975
H	-0.9502732444	-2.3446659959	-1.0845060798	 0.095593
H	-0.8846889812	-2.4359722536	 0.6679214764	 0.12434
H	-3.3946621593	-2.3002756271	 0.7788307083	 0.090314
H	-3.2601345046	-2.5317569288	-2.2962847552	 0.120035
H	-4.7329034631	-2.6354501411	-1.3168964008	 0.128676
H	-3.8442802118	-1.1125708363	-1.417590702	 0.127747
H	-2.3097804704	-4.5660998135	-1.0060465202	 0.065573
