15
gdb 43490	2.44539	1.99398	1.1995	3.226	66.75	-0.2692	-0.0083	0.2609	982.8507	0.115053	-453.98104	-453.974074	-453.97313	-454.012829	26.331	
N	-0.0534256964	 1.3215221454	-0.1593384031	-0.527468
C	-0.0248562391	 0.0692926839	-0.0755983651	 0.405576
O	 1.1097024751	-0.719057801	-0.1403699116	-0.229351
C	 0.7898269	-2.059585661	 0.1121508347	 0.443732
O	 1.6198059378	-2.879022305	 0.359235907	-0.349242
N	-0.5869005465	-2.2021982822	 0.0428266435	-0.153985
C	-1.3174619005	-2.6392435896	 1.2745464399	-0.183047
C	-1.8092435464	-1.1763779956	 1.4837739671	-0.252896
C	-1.2011438299	-0.8601331398	 0.0825292592	-0.068334
H	 0.8834299978	 1.7105571071	-0.2747378034	 0.240999
H	-2.1074205638	-3.3536043825	 1.0349545726	 0.133152
H	-0.6586221191	-3.0657763964	 2.0332194805	 0.146465
H	-2.8857613617	-1.0307132461	 1.5710213489	 0.129551
H	-1.3060847452	-0.6545803928	 2.29956302	 0.136081
H	-1.9437850523	-0.6860981043	-0.6994788904	 0.128767
