21
gdb 40693	3.29344	1.14409	0.98503	2.6705	82.35	-0.2311	0.0669	0.2979	1277.7223	0.184384	-383.197687	-383.189014	-383.18807	-383.231907	32.852	
C	-0.4832888803	 1.2277671434	-0.260563732	-0.244763
C	 0.9281748224	 1.1694085053	 0.2610162787	-0.278814
C	 0.1661253008	-0.1076197811	-0.0118447303	 0.004401
C	-0.2355214113	-0.9932188933	 1.1311612038	-0.037901
N	-1.4186068513	-0.6325133827	 1.9372415338	-0.349409
C	-1.4440847713	-1.868679691	 1.1421839373	-0.046619
C	-2.448118261	-1.9437982792	 0.0283328532	-0.003077
C	-3.8938551525	-1.8138985235	 0.3460496428	-0.240575
N	-3.1905517701	-0.7542838488	-0.3953010038	-0.310579
H	-1.2519402724	 1.5391164457	 0.4362534671	 0.12533
H	-0.6509225812	 1.5297639808	-1.2877919195	 0.115476
H	 1.7448439297	 1.4341606622	-0.4016207111	 0.108844
H	 1.0877626283	 1.4444965099	 1.2988628554	 0.10823
H	 0.4774404452	-0.6586004283	-0.8957036594	 0.08972
H	 0.6115551423	-1.3936258169	 1.6895852658	 0.08472
H	-1.2663709626	-0.8321269538	 2.9208141979	 0.234853
H	-1.3282368451	-2.8081559626	 1.6836340322	 0.084894
H	-2.1569397146	-2.6016144191	-0.7892463474	 0.090147
H	-4.6341853883	-2.3681489694	-0.2241415065	 0.11224
H	-4.159890727	-1.6233514587	 1.3829877085	 0.108139
H	-2.9610769994	-0.0072118587	 0.2580276834	 0.244743
