20
gdb 82238	2.44497	1.9285	1.40374	1.4371	76.52	-0.2283	0.0617	0.29	992.0914	0.173159	-403.106296	-403.0988	-403.097856	-403.138067	30.139	
C	-0.6815090596	 1.4241262358	 0.1823694189	-0.397744
C	-0.0360467267	 0.0477824041	 0.0453707328	 0.028804
C	 0.6610020321	-0.2622752865	-1.3041665771	-0.09734
C	 1.490385403	 0.7949307762	-2.066393333	-0.095291
O	 2.7344891645	 0.1801751097	-1.670522168	-0.290805
C	 2.0418897121	-0.8726548337	-0.9507819813	 0.103793
C	 2.1521128102	-0.8153700511	 0.5662674822	-0.041919
C	 2.1576936902	 0.5448640004	 1.1616746106	-0.250581
N	 0.9195189445	-0.2387032305	 1.1461858417	-0.101724
H	 0.0510465908	 2.2318254737	 0.0958532561	 0.118325
H	-1.4413172108	 1.573393959	-0.5912725956	 0.11589
H	-1.1652304378	 1.5148643306	 1.1588018661	 0.130353
H	-0.8268207464	-0.7023070323	 0.1693243476	 0.085527
H	 0.0153149271	-0.8576182469	-1.9512345094	 0.083322
H	 1.3618670736	 0.7721616485	-3.1553571095	 0.1028
H	 1.4127541515	 1.8346753638	-1.7265270707	 0.100655
H	 2.3026370011	-1.8576109082	-1.3501175074	 0.077112
H	 2.5907559289	-1.6592557121	 1.0904403784	 0.087281
H	 2.5769876525	 0.7030060864	 2.1512695538	 0.114894
H	 2.2898546591	 1.378344493	 0.4785234339	 0.126645
