17
gdb 62986	2.28217	1.60093	1.27617	4.171	72.65	-0.2525	0.0264	0.2789	1042.9217	0.135152	-417.974175	-417.965682	-417.964738	-418.006923	32.483	
C	-0.1246462382	 1.5669372798	-0.1389879005	-0.468737
C	-0.0088768997	 0.0584318358	-0.0443916485	 0.405757
O	-1.2434772221	-0.5705422238	 0.2097437196	-0.475423
C	 0.6669104161	-0.6889886859	-1.2053243056	-0.079282
N	 2.0442151905	-0.159139093	-1.2945141225	-0.330423
C	 1.7348461315	-1.232003297	-0.3297030389	-0.060932
C	 1.1407527776	-0.5465190303	 0.9112926817	-0.22699
C	 1.9898927629	 0.3489076261	 1.6764496633	 0.295239
N	 2.642113532	 1.0758753776	 2.2959375167	-0.34369
H	 0.8333521055	 2.0070942839	-0.4200880622	 0.163169
H	-0.8772837713	 1.8326718085	-0.8877767927	 0.12419
H	-0.4243405007	 1.9951049521	 0.8250365647	 0.121361
H	-1.6994348064	-0.0731846499	 0.8976046062	 0.285845
H	 0.1586633061	-1.1331311478	-2.0513601946	 0.108933
H	 2.4913953098	-0.589680398	-2.1023175163	 0.241564
H	 2.2503673364	-2.1830357007	-0.3510262739	 0.111529
H	 0.65917112	-1.2706047574	 1.5716773034	 0.127891
