16
gdb 30281	3.06918	1.64437	1.14048	1.6826	69.89	-0.2034	0.013	0.2164	1038.6554	0.126132	-437.899809	-437.892389	-437.891445	-437.932819	27.613	
C	 0.0495784633	 1.595964829	-0.0435813768	-0.393401
C	-0.0231460567	 0.0686542551	 0.0761280121	-0.155327
C	 0.7295010472	-0.6750482724	-1.1057494983	-0.103907
O	 1.737157333	-1.6131526645	-0.5565933009	-0.285462
C	 1.6304261199	-1.40182782	 0.7562144234	 0.423366
C	 0.7283435654	-0.5317562315	 1.2284469561	 0.14596
N	 0.820723285	-0.5138659882	 2.613712325	-0.331241
C	 1.7627958982	-1.3639404715	 2.8682882738	 0.024884
O	 2.328358522	-1.9711694408	 1.7472266496	-0.202018
H	 1.0901266782	 1.9356048757	-0.0651401529	 0.120896
H	-0.4476178657	 1.9457190928	-0.9549026142	 0.113886
H	-0.441700247	 2.0685644447	 0.8116806374	 0.136067
H	-1.0790686397	-0.2306781674	 0.0752306774	 0.095421
H	 0.0583287047	-1.2714498006	-1.7255793522	 0.132088
H	 1.2751280664	 0.030727535	-1.7373334585	 0.128988
H	 2.1725436857	-1.6693091254	 3.816201409	 0.149799
