23
gdb 112609	3.44924	0.8215	0.78484	0.4175	82.47	-0.26	0.0722	0.3321	1567.4158	0.203982	-425.409422	-425.398891	-425.397946	-425.444953	39.015	
C	 0.0469500162	 1.5277515137	 0.0770421257	-0.459369
C	-0.0127831795	 0.0049280112	 0.0245489481	 0.350175
C	-1.4390516758	-0.477396976	-0.2253965728	-0.120674
O	-1.8626460646	-0.0001664448	-1.4959251509	-0.426002
C	 1.0032382472	-0.7046061089	-0.9272490444	-0.287889
C	 1.3419195156	-1.7101251545	 0.2067025328	 0.058977
C	 2.801603654	-2.0332472533	 0.4438136252	-0.099153
O	 2.8892037226	-2.8547976357	 1.6002705537	-0.423616
C	 0.6302427347	-0.7692293959	 1.2172873232	-0.283008
H	 1.0747749637	 1.8751669551	 0.2243988924	 0.101351
H	-0.3357777898	 1.9632411992	-0.8503681655	 0.132006
H	-0.5584985098	 1.9156191122	 0.9056470728	 0.10496
H	-1.4730678987	-1.5779570193	-0.1894532424	 0.081975
H	-2.0938197972	-0.1026407761	 0.57924916	 0.081518
H	-2.7626942268	-0.3017549126	-1.6474081817	 0.286862
H	 0.5984887216	-1.1028331858	-1.8599849352	 0.10578
H	 1.8529151572	-0.0565494039	-1.1670150122	 0.087929
H	 0.7951638217	-2.6509434677	 0.0902952467	 0.075964
H	 3.218291212	-2.5422557107	-0.4417932203	 0.082732
H	 3.3681417692	-1.0960005749	 0.5777573484	 0.076462
H	 3.817740215	-3.0369185656	 1.7712659071	 0.285291
H	 1.3431342633	-0.1480901995	 1.7687724855	 0.093454
H	-0.0506067214	-1.2293619162	 1.9393306637	 0.094278
