18
gdb 78630	4.37752	1.15223	1.05681	2.3088	77.04	-0.2446	-0.0344	0.2102	1171.2011	0.146688	-401.85365	-401.845768	-401.844824	-401.886343	29.794	
C	-0.2794459673	 1.5779839104	 0.0367505672	-0.428549
C	-0.0456402702	 0.0873476123	-0.1374935448	 0.006245
C	 1.3139305577	-0.4211437865	-0.637160907	-0.01513
C	 2.023454058	-0.2638396132	 0.7441079462	-0.080586
C	 2.4726154513	-1.7142190862	 0.6485816905	-0.056227
C	 2.6309361862	-2.551799654	 1.8900706057	 0.140126
O	 2.5630215424	-2.1177207535	 3.0134388732	-0.245907
N	 1.0705229138	-1.8128889671	 0.0120113092	-0.189674
C	 0.5578384706	-0.7309932729	 1.0130499565	-0.016626
H	 0.5702412601	 2.0693607579	 0.5217791762	 0.120146
H	-0.4398997668	 2.0644841471	-0.9311293827	 0.122159
H	-1.1671043567	 1.7640189179	 0.6503481675	 0.124502
H	-0.8935832983	-0.410909713	-0.6212004452	 0.085007
H	 1.7715030525	-0.3594461459	-1.6272822459	 0.08226
H	 2.5481357959	 0.6026124459	 1.1526818998	 0.080565
H	 3.257749093	-1.9649237962	-0.0779139026	 0.086675
H	 2.8009393638	-3.6357692291	 1.6996041634	 0.085032
H	 0.1221048041	-1.0233598139	 1.9681165329	 0.099982
