16
gdb 4914	6.60012	1.2465	1.06326	1.4871	67.12	-0.2023	0.0362	0.2385	1096.4422	0.131593	-379.966686	-379.958872	-379.957928	-379.99899	28.858	
C	-0.9170677066	 0.8336746247	-0.0790354415	-0.386789
C	 0.5537560586	 0.4108576187	-0.0638678513	-0.283989
C	 1.0199650389	-0.1250584673	 1.2507983312	 0.265372
C	 0.3489634065	-0.2839208636	 2.4128406093	-0.13871
O	 1.226309776	-0.821301936	 3.3449865458	-0.186903
C	 2.3810976505	-0.9498685902	 2.6601738453	 0.447065
N	 3.4671078229	-1.4057872767	 3.3656416315	-0.587762
N	 2.3384128165	-0.5663313094	 1.4226316454	-0.387513
H	-1.1102900556	 1.6219602247	 0.6560197806	 0.120321
H	-1.2009461038	 1.2170988996	-1.0628808098	 0.115036
H	-1.5745919004	-0.0103895506	 0.1540233391	 0.119265
H	 0.7357059855	-0.3496577154	-0.8342383046	 0.116997
H	 1.192710458	 1.2596731445	-0.3398999987	 0.118652
H	-0.6525313066	-0.1025871617	 2.7578739923	 0.136152
H	 3.244174729	-2.0376856929	 4.1206901884	 0.263027
H	 4.2089118706	-1.7385358385	 2.7678558769	 0.269779
