23
gdb 93826	2.37477	1.33342	1.03151	1.7549	81.79	-0.2477	0.0754	0.3231	1273.2206	0.20592	-425.444936	-425.435396	-425.434452	-425.478563	37.073	
C	-0.0690375431	 1.5477866695	 0.0589439729	-0.400708
C	-0.0075136086	 0.0294099793	-0.0150550702	 0.141165
C	 0.6649364182	-0.4856896388	-1.2971636116	-0.239682
C	 0.8311070778	-2.0098917689	-1.251768634	 0.114541
O	 1.5676487407	-2.511401318	-2.3589004871	-0.44174
C	 1.5385275888	-2.4480382336	 0.0411976255	 0.007457
C	 3.0266655203	-2.0755506085	 0.0804198476	-0.395774
C	 0.7679313866	-1.8329792486	 1.2199562662	-0.09298
O	 0.7016169843	-0.4190926633	 1.1338348988	-0.25716
H	 0.9399647668	 1.9707986401	 0.0328490445	 0.123686
H	-0.6380572688	 1.9522832084	-0.7835410508	 0.111668
H	-0.5488658258	 1.8641233529	 0.9889045277	 0.123346
H	-1.0353564244	-0.3770723515	 0.0262609635	 0.059755
H	 0.0602614589	-0.1998013999	-2.1685051158	 0.081449
H	 1.6469461352	-0.0131107791	-1.4114644937	 0.110254
H	-0.1768917204	-2.4613413317	-1.2419948731	 0.057465
H	 1.1550569076	-2.1826893859	-3.1640609892	 0.278599
H	 1.4494856153	-3.5396501136	 0.1109187145	 0.074028
H	 3.1624740695	-0.9954436843	 0.1815927195	 0.122186
H	 3.51246903	-2.5493955399	 0.9397948587	 0.105191
H	 3.5325939007	-2.4069940011	-0.828298105	 0.132019
H	-0.2517367648	-2.2534807881	 1.266381803	 0.081114
H	 1.2667225052	-2.0574043054	 2.167709518	 0.10412
