23
gdb 109887	2.24319	1.48944	1.1229	1.7037	84.66	-0.2377	0.0684	0.3061	1224.0594	0.205914	-388.262316	-388.253012	-388.252068	-388.296826	35.17	
C	 0.0144421513	 1.493050606	 0.3328185857	-0.38673
C	 0.0382914599	-0.0340305586	 0.2011712423	-0.182445
C	-1.3507748021	-0.6241573141	-0.016242186	-0.006902
C	-1.539503648	-2.1904847157	-0.0985083374	-0.014441
C	-0.3258261353	-3.1086525554	-0.0128167993	-0.415658
C	-2.5367766849	-2.1307307534	 1.1002160238	-0.097872
C	-1.9258264252	-2.1427359809	 2.5103384314	-0.081576
O	-1.6682732587	-0.718580748	 2.4685552606	-0.291034
C	-2.328002302	-0.593570966	 1.1892351226	 0.107405
H	 1.0239578215	 1.8949210775	 0.464072258	 0.109517
H	-0.4190853976	 1.9642312702	-0.5568406107	 0.107453
H	-0.5798652028	 1.8013024037	 1.1990518494	 0.129019
H	 0.6867223542	-0.3233208252	-0.6355503182	 0.08801
H	 0.4775265799	-0.4625971201	 1.1072444082	 0.108281
H	-1.8129580614	-0.1431290902	-0.8868008662	 0.063472
H	-2.0930571161	-2.4423586799	-1.0087183268	 0.073006
H	 0.3013930656	-2.8995111624	 0.8584517851	 0.123368
H	-0.6373759186	-4.1577645953	 0.0463221836	 0.111405
H	 0.3054731107	-3.0029618177	-0.901469285	 0.116964
H	-3.5023257321	-2.6191325002	 0.9721499032	 0.07131
H	-2.6428865027	-2.3894767189	 3.3043657997	 0.098613
H	-1.0130553308	-2.7289536087	 2.6679257869	 0.10024
H	-3.1221372649	 0.1581808235	 1.209563919	 0.068595
