21
gdb 66619	2.60761	1.90646	1.45358	0.3853	85.97	-0.2241	0.094	0.3181	1006.9358	0.182923	-349.897897	-349.89003	-349.889086	-349.929573	32.206	
C	 0.098338124	 1.5485551185	 0.0052890991	-0.525425
C	-0.014417605	 0.0581707721	 0.0020181433	 0.285108
C	 0.7054733042	-1.0105449999	-0.7918088387	-0.123216
C	 0.7492359435	-1.0173836206	 0.7440059879	-0.123205
C	-0.4935484335	-1.8811977534	 1.0480163228	-0.10632
C	-0.5267102063	-3.0226319304	 0.0026250699	-0.249181
C	-0.5530040721	-1.8716359542	-1.0323876318	-0.10628
C	-1.2417255511	-0.923612103	 0.0327251901	 0.327356
C	-2.7000951101	-0.5778792205	 0.076056912	-0.534342
H	 1.1499350642	 1.8563382644	-0.0196949322	 0.119697
H	-0.3954652719	 1.9953132118	-0.8660424732	 0.116715
H	-0.3511845901	 1.987880449	 0.9039406453	 0.116714
H	 1.5985569273	-0.9208140405	-1.3975804201	 0.076758
H	 1.675358813	-0.9327264339	 1.298752192	 0.076752
H	-0.8011799701	-2.017766703	 2.0850392054	 0.05701
H	 0.3062947249	-3.7322353328	-0.0244391433	 0.087959
H	-1.475836584	-3.568199612	 0.0271960691	 0.092375
H	-0.919361888	-1.9987332267	-2.0513758976	 0.057015
H	-3.3186354295	-1.4830535894	 0.0907818738	 0.11945
H	-2.9470781632	 0.006141941	 0.9706365372	 0.117531
H	-2.9982108063	 0.0123524035	-0.798645471	 0.117528
