14
gdb 126078	4.0284	1.12988	1.03736	2.8104	64.08	-0.2899	-0.0789	0.211	1136.1989	0.099564	-469.92571	-469.918101	-469.917157	-469.958743	27.132	
C	 0.0275817515	 1.5240198234	-0.2909214555	-0.436924
C	-0.0483472759	 0.0612523536	 0.0473423296	 0.082967
O	 1.1499549623	-0.7089847633	-0.0511587794	-0.235528
C	 0.5790950328	-0.5574913848	 1.2418836547	-0.046616
C	 1.3479505624	 0.2021428981	 2.2451924069	 0.416569
N	 2.3163123191	 1.0480301332	 2.0277033274	-0.153041
O	 2.6843465163	 1.4655607444	 3.2617274433	-0.131599
N	 1.8950944156	 0.8259093064	 4.2111179628	 0.0497
N	 1.0985324855	 0.0690534788	 3.6026113395	-0.209585
H	 0.9041383679	 1.9947598174	 0.1578321533	 0.158952
H	 0.0877552918	 1.6481666977	-1.3768008295	 0.140962
H	-0.8744801826	 2.0382396404	 0.0566227378	 0.13064
H	-0.9298443906	-0.4613980153	-0.3291085332	 0.108287
H	 0.1171637639	-1.44909688	 1.6639339826	 0.125214
