19
gdb 72236	2.42809	2.05612	1.37707	2.0163	75.01	-0.2099	0.0819	0.2918	989.7336	0.158538	-422.992042	-422.984029	-422.983085	-423.024001	31.623	
C	 0.0189553259	 1.4944851739	-0.0963716991	-0.505119
C	-0.0229413411	 0.0068828698	 0.0171796791	 0.402726
O	 0.8481989505	-0.7330224303	-0.8497176752	-0.335763
C	-0.0493701915	-1.8814339898	-0.7582637956	 0.053861
C	 0.5183104767	-2.7829826004	 0.3262471971	-0.083728
O	 0.5126991067	-1.9525365765	 1.4917213324	-0.303874
C	-0.3457026995	-0.8531766386	 1.2413209348	 0.392568
C	-0.9344745295	-0.2778124308	 2.4961667755	-0.482923
C	-1.1221138051	-1.0405109813	-0.0371007241	-0.301243
H	 1.0169569315	 1.8639654001	 0.164284339	 0.137139
H	-0.2044460925	 1.8106112204	-1.1204554865	 0.130513
H	-0.7030813777	 1.963180796	 0.5769592024	 0.125579
H	-0.254036239	-2.3348757119	-1.7289380516	 0.086109
H	-0.0987326996	-3.682103077	 0.4817112715	 0.089601
H	 1.5481661709	-3.0826383602	 0.1098610522	 0.117326
H	-0.1440974121	 0.0816705985	 3.1626201424	 0.13388
H	-1.6017048592	 0.5586267348	 2.2730858602	 0.120639
H	-1.5082885588	-1.0414897347	 3.0306692225	 0.128331
H	-2.1931145265	-1.0093035019	-0.1912251069	 0.094379
