21
gdb 61915	3.39036	0.72865	0.63091	2.1886	85.33	-0.2581	0.0566	0.3146	1771.7247	0.179604	-387.038517	-387.02817	-387.027225	-387.074763	37.281	
C	 0.0407940647	 1.7972335342	 0.0466413534	-0.404922
C	 0.0376798868	 0.2612150448	 0.0553952595	-0.00776
C	 0.6939873053	-0.3575752229	-1.1926983743	-0.17639
C	-0.0726410745	-0.0869889175	-2.5039429504	-0.371105
C	 0.5400661394	-0.7388283982	-3.6550901511	 0.294339
C	 1.066886137	-1.2840197065	-4.5878860295	-0.434532
C	 0.7400761297	-0.2477360638	 1.2978411909	 0.091124
C	 0.0184813643	-0.6029276444	 2.5254028908	-0.184835
O	 0.5197476289	-1.6150755668	 1.6485199794	-0.243466
H	 1.0637648646	 2.1869093088	-0.0130713384	 0.118869
H	-0.5174143706	 2.19978847	-0.802853	 0.122293
H	-0.415050988	 2.1950487633	 0.9588976511	 0.118174
H	-1.0011686998	-0.0931535378	 0.1060176061	 0.076446
H	 1.7204445952	 0.0164619014	-1.2956017799	 0.104335
H	 0.7669445203	-1.4399776851	-1.0474546104	 0.129671
H	-1.108982823	-0.4346158579	-2.3966201251	 0.129739
H	-0.1320576508	 0.99149926	-2.6942304619	 0.130269
H	 1.5228195472	-1.7637861248	-5.4179253767	 0.192842
H	 1.7816129058	 0.068766959	 1.3988088762	 0.088794
H	 0.5154319092	-0.5328495356	 3.4920596415	 0.114561
H	-1.0666580517	-0.50816138	 2.5549639787	 0.111553
