20
gdb 64349	2.60203	1.417	1.14839	2.7029	76.45	-0.2534	0.0243	0.2777	1145.8636	0.171161	-440.312251	-440.303346	-440.302402	-440.345438	34.523	
C	-0.0247586703	 1.5639659726	 0.0390434602	-0.431271
C	-0.0010585026	 0.0351676699	-0.0064166585	 0.331943
O	-1.3344419096	-0.4756958829	-0.1178302565	-0.464751
C	 0.7379091672	-0.4931453973	-1.242185355	-0.222343
C	 0.7413891641	-2.0160289758	-1.2408202106	-0.080283
O	 1.254245615	-2.5838598109	-0.0229081042	-0.260888
C	 0.8514903196	-2.0567155204	 1.1700549535	 0.382962
N	 0.7291933487	-2.7693211128	 2.2093760208	-0.507576
C	 0.6887989369	-0.55517764	 1.2337146276	-0.297545
H	 0.9868770533	 1.9820606442	 0.044608977	 0.116208
H	-0.5605542118	 1.9553066078	-0.830380702	 0.124972
H	-0.5369651878	 1.9153608128	 0.9422200346	 0.109642
H	-1.7903339047	-0.3107585783	 0.7143447582	 0.283984
H	 0.242896445	-0.1402337634	-2.1530962969	 0.111027
H	 1.7626313837	-0.1064495738	-1.2437267523	 0.105045
H	-0.2777102895	-2.3865041756	-1.3929040296	 0.128619
H	 1.3813391622	-2.4134157285	-2.0320273175	 0.113012
H	 0.9147202916	-3.748208361	 1.9780244581	 0.216888
H	 1.6889392013	-0.112481689	 1.328164494	 0.122815
H	 0.1444033678	-0.3109557076	 2.1500771191	 0.117539
