23
gdb 59954	2.21277	1.17661	1.02594	2.9619	82.29	-0.2545	-0.0292	0.2253	1346.5844	0.202311	-425.449283	-425.438376	-425.437431	-425.484696	40.645	
C	 2.1788211736	 1.5474886767	 1.3415611208	-0.393105
C	 2.1823524551	 0.0504088231	 1.0204368478	 0.132788
O	 3.2006912803	-0.6261316805	 1.747242753	-0.441057
C	 0.7887117974	-0.5667346187	 1.230985921	-0.253758
C	 0.6824566399	-2.1038063632	 1.1278300381	 0.165633
C	-0.8044245895	-2.5086246749	 0.9740026405	-0.424084
C	 1.4912139604	-2.6955195498	-0.0460749017	-0.432854
C	 1.1550473596	-2.785476096	 2.4048370148	 0.169015
O	 1.5546813582	-2.2434626491	 3.4071183938	-0.279819
H	 1.9061791011	 1.7184015459	 2.3893699812	 0.113156
H	 3.1752071001	 1.9660344948	 1.1772138768	 0.12164
H	 1.4650734603	 2.0903531043	 0.7119529472	 0.105999
H	 2.4653609271	-0.071187887	-0.0333187193	 0.080362
H	 2.8472496888	-0.8345781535	 2.6222018516	 0.291285
H	 0.41254564	-0.2677625071	 2.2176240549	 0.106343
H	 0.1100542304	-0.1206218774	 0.4937461547	 0.095404
H	-1.1824251366	-2.1679311298	 0.0050975467	 0.125567
H	-0.932001363	-3.5957909259	 1.0175819466	 0.118171
H	-1.4237362927	-2.0615416543	 1.7581925359	 0.126722
H	 2.5558159607	-2.4769157588	 0.0594047735	 0.154714
H	 1.3633493388	-3.7823617598	-0.0975122604	 0.112099
H	 1.1366460054	-2.2772111594	-0.99369274	 0.120061
H	 1.0744595746	-3.8965727795	 2.3674828225	 0.08572
