15
gdb 128033	4.88244	0.92294	0.77995	4.765	73.44	-0.2404	-0.0395	0.2008	1393.7213	0.112937	-450.08474	-450.076623	-450.075679	-450.118132	28.928	
C	-0.2326524799	 1.6181497942	 0.0724351244	-0.316542
N	 0.0112758995	 0.1911917355	 0.0414805994	-0.212237
C	-0.9845543139	-0.5709753728	-0.129680995	 0.103416
N	-0.8982979985	-1.94802217	-0.1799950572	-0.422557
C	 0.2447555309	-2.7063247563	-0.0570794597	 0.43501
N	 0.1913979763	-4.0145551624	-0.124286406	-0.193178
O	 1.4877562401	-4.4353835205	 0.0354506126	-0.149249
N	 2.3364000414	-3.3834854277	 0.2006562635	-0.062151
C	 1.6012106526	-2.309010302	 0.1483058566	-0.091033
H	 0.3496870712	 2.1102772301	-0.7149504576	 0.132097
H	-1.2924438869	 1.8889373612	-0.0609567701	 0.099914
H	 0.1101584748	 2.0315861712	 1.0278678692	 0.132089
H	-2.0177737424	-0.2212983307	-0.2557417809	 0.096515
H	-1.7499342705	-2.46746886	-0.3205855195	 0.273338
H	 2.0005721753	-1.3159520399	 0.2487034204	 0.174568
