23
gdb 120455	3.47941	0.82399	0.7322	2.4892	87.2	-0.2327	-0.015	0.2177	1676.487	0.20392	-388.316385	-388.305936	-388.304992	-388.352567	37.718	
C	-0.0186922321	 1.6277083244	-0.0508608038	-0.382133
C	-0.033213895	 0.0992679134	-0.1297489372	-0.168045
C	-1.4267371611	-0.4965833825	 0.1114132735	-0.193099
C	-1.4527615169	-2.0192864676	 0.0136807402	-0.091561
C	-2.8028798061	-2.7987607843	 0.1345019914	-0.283864
C	-2.4172010088	-3.6920442971	-1.0887081939	-0.076707
C	-3.4257518672	-3.9873569171	-2.1896029532	-0.405755
C	-1.3105175763	-2.6635505077	-1.3777277595	 0.382181
O	-0.7051837605	-2.3663673334	-2.3700190196	-0.310262
H	 0.9865474307	 2.0253278157	-0.2214268823	 0.112546
H	-0.6818314771	 2.0689739575	-0.8033301178	 0.115153
H	-0.3539976699	 1.979846307	 0.9314917271	 0.109634
H	 0.3254947051	-0.2297336475	-1.1108829483	 0.128768
H	 0.666584896	-0.313519588	 0.6094522249	 0.089496
H	-1.7951677974	-0.1941905728	 1.1012673409	 0.09486
H	-2.1326398442	-0.0784582086	-0.6190369486	 0.095209
H	-0.7026700614	-2.4550864223	 0.6875819294	 0.096718
H	-2.9883350365	-3.3131605974	 1.07843161	 0.104549
H	-3.6579641444	-2.155268516	-0.0938602981	 0.108405
H	-1.9479275795	-4.6212238265	-0.7396974147	 0.10092
H	-3.9066740459	-3.0673440182	-2.5376219622	 0.120096
H	-2.9313057838	-4.4489690655	-3.0495366844	 0.134582
H	-4.2087435277	-4.6675636154	-1.8397184739	 0.118307
