17
gdb 19128	2.79128	1.95114	1.40404	3.9977	72.7	-0.267	0.0329	0.2999	934.6755	0.142454	-326.716417	-326.708671	-326.707727	-326.748681	29.074	
N	 0.0781107216	-1.1418967855	 0.0327917873	-0.363298
C	 0.0450307971	 0.0149708845	 0.0286096725	 0.227183
C	-0.0139700137	 1.4553896584	 0.0115029671	 0.202054
C	 0.4903445721	 2.1702460994	 1.2598808971	-0.293744
C	 1.3220263154	 2.1895113791	 0.0130401864	-0.293668
C	-1.168945509	 2.0549247831	-0.7498293776	-0.05235
C	-1.6934494542	 1.4320506175	-2.0186206636	-0.278443
C	-2.5318805182	 1.4106672857	-0.7639816602	-0.278506
H	-0.0472836344	 3.068764008	 1.5413838482	 0.12984
H	 0.8233070361	 1.5608709839	 2.091339919	 0.140654
H	 2.2262080199	 1.5933925033	-0.0118505387	 0.140649
H	 1.3624050969	 3.1014176458	-0.5721263037	 0.12984
H	-1.1522885777	 3.1408603273	-0.7201529962	 0.08602
H	-1.9816016282	 2.0925489093	-2.8285776275	 0.115242
H	-1.254345972	 0.4933742444	-2.3387129882	 0.136612
H	-2.6448226364	 0.4579150808	-0.2581350744	 0.136678
H	-3.4006833352	 2.0564371449	-0.7049526874	 0.115236
