17
gdb 57070	3.00792	1.16545	1.02756	7.2695	68.46	-0.2519	0.0305	0.2824	1184.3341	0.135881	-455.116697	-455.107594	-455.106649	-455.150875	32.819	
N	-0.1304649955	 1.6035003535	-0.143259132	-0.512252
C	-0.0187480231	 0.1507423496	-0.0647349223	-0.140898
C	-1.3426710034	-0.4325938984	 0.2150524955	 0.294006
N	-2.372114604	-0.9165627509	 0.4158612137	-0.319765
C	 0.5841365503	-0.5438709885	-1.3124395144	 0.105049
O	 0.0818312535	 0.0145837055	-2.5432961254	-0.283132
C	 1.3919332841	 0.4813833796	-2.9361815136	-0.101634
C	 2.0354304671	-0.153279675	-1.6826172437	 0.026549
O	 2.6412760016	 0.7070124832	-0.7438614812	-0.420522
H	 0.8088033398	 1.9853472807	-0.1934715901	 0.246707
H	-0.6034080607	 1.841377498	-1.0111797811	 0.245423
H	 0.6306858577	-0.0968777357	 0.7837789652	 0.1427
H	 0.4033869002	-1.6240847504	-1.2604277466	 0.103301
H	 1.6960197615	 0.0725971166	-3.9062303198	 0.112424
H	 1.4543048911	 1.5762030329	-2.9563905823	 0.106067
H	 2.6757857938	-1.0155374803	-1.8968645116	 0.09623
H	 3.568309436	 0.8219921297	-0.97278599	 0.299747
