18
gdb 67141	2.07076	1.83901	1.49475	2.923	76.52	-0.2149	0.0062	0.221	1006.709	0.147125	-401.911323	-401.902872	-401.901928	-401.944198	31.708	
C	-0.1379568765	 1.4985554195	-0.0427749483	-0.52684
C	 0.0271827965	 0.017402006	-0.0109726918	 0.300944
C	 0.0584395458	-1.0887250297	-1.001573748	-0.133351
N	 1.3004220944	-1.6570878307	-0.459434498	-0.308985
C	 0.9614016324	-0.9535532784	 0.8130959062	-0.210509
C	-0.3751802717	-1.5573667057	 1.3082679404	 0.381004
O	-0.7698408666	-1.9427217965	 2.3767497743	-0.347269
C	-1.0637797589	-1.1242918307	 0.0558237325	 0.13464
C	-2.5303304331	-1.0575795974	-0.2323068645	-0.511862
H	 0.778600397	 1.9895781744	-0.3867175759	 0.140654
H	-0.9474914886	 1.7848316009	-0.7217415772	 0.13212
H	-0.380105835	 1.8920813332	 0.9501707747	 0.138344
H	-0.1777213844	-1.0796250904	-2.0603702733	 0.104503
H	 1.2816595917	-2.6754977506	-0.3613539345	 0.214481
H	 1.7682911107	-0.6925051607	 1.4942423502	 0.093471
H	-3.0869903551	-0.7267624858	 0.6503182649	 0.140723
H	-2.7463944335	-0.3642191148	-1.0521415564	 0.122048
H	-2.9197625953	-2.0394822126	-0.5220811153	 0.135885
