16
gdb 102264	2.43532	1.07321	0.88846	4.4173	66.36	-0.2666	0.0195	0.2861	1323.9439	0.123935	-471.248378	-471.238634	-471.23769	-471.28431	34.251	
N	-0.0853137236	 1.3371998646	-0.161851477	-0.565224
C	 0.0515699308	-0.0256114012	 0.0132432526	 0.476017
O	 1.1257491085	-0.5832278681	 0.1277012835	-0.38771
N	-1.1517814283	-0.7126707019	 0.0381651776	-0.33275
C	-1.1477217681	-2.1578135957	 0.0047646025	-0.115426
C	-2.4363647877	-2.6883580927	 0.6627851801	-0.091176
O	-3.5867636171	-2.1814294128	 0.013486901	-0.421594
C	-1.0726314148	-2.687547164	-1.3766377325	 0.26494
N	-1.0980668774	-3.1062240239	-2.4538093561	-0.321849
H	 0.7576178596	 1.8526299894	 0.0382571392	 0.267895
H	-0.9383062406	 1.7836375523	 0.1373278956	 0.254528
H	-1.9902828356	-0.2808996976	-0.3211352189	 0.254673
H	-0.2631018849	-2.4969665112	 0.551057564	 0.16241
H	-2.4192118407	-3.7856616537	 0.6807727074	 0.119466
H	-2.4690193765	-2.3185985256	 1.6908648598	 0.131789
H	-3.6716561635	-2.6293383479	-0.8365837588	 0.304011
