20
gdb 6849	3.25444	1.84098	1.5621	1.2336	75.69	-0.2343	0.0345	0.2688	924.7099	0.17742	-349.029265	-349.021193	-349.020249	-349.060888	32.084	
C	 0.0024079834	 1.5527301426	 0.0294525642	-0.428864
C	-0.0070725027	 0.0207639049	 0.010105696	 0.352213
O	-1.3594159613	-0.4505406269	-0.0533081886	-0.465387
C	 0.6638163478	-0.5280568198	-1.2570905445	-0.20299
C	 0.5994275316	-2.0602075656	-1.3135977626	-0.256728
C	 0.9949079296	-2.687820688	-0.0047171119	-0.033779
C	 1.0391171015	-2.0124918163	 1.1419052202	-0.057009
C	 0.6997371894	-0.5493688796	 1.2583512557	-0.267834
H	 1.0211544147	 1.9499336799	-0.0264933816	 0.112035
H	-0.5712787181	 1.941926276	-0.8165889035	 0.120053
H	-0.4520573879	 1.9328551953	 0.9528138566	 0.099601
H	-1.8033761494	-0.1858872784	 0.7590470106	 0.273345
H	 0.1799000119	-0.0929327173	-2.137882196	 0.095651
H	 1.7097623379	-0.1996932851	-1.2629895651	 0.094309
H	-0.4198954126	-2.3749116102	-1.572604846	 0.125136
H	 1.2454349718	-2.4309355092	-2.1190699903	 0.093395
H	 1.23871938	-3.7476158671	-0.0155224139	 0.07961
H	 1.3358328876	-2.5171889204	 2.0585370089	 0.078356
H	 1.6122796958	 0.0300352059	 1.4614794809	 0.103304
H	 0.0557129592	-0.3802293608	 2.134533311	 0.085583
