16
gdb 24067	6.73492	0.71558	0.67939	3.1069	76.13	-0.2339	0.0103	0.2442	1567.8308	0.12666	-396.985533	-396.977348	-396.976404	-397.019591	29.181	
N	-0.004072165	-1.1885085786	 0.1109467462	-0.299043
C	-0.0242237209	-0.0331257927	 0.1037523229	 0.255032
C	-0.0151703401	 1.4276707873	 0.0938144267	-0.32757
C	 1.4102245406	 2.0086189027	-0.1148633246	-0.331573
C	 1.4288038165	 3.5003368545	-0.1082715085	 0.293317
C	 1.4744002364	 4.4287643897	-1.1183463434	-0.159226
N	 1.4373321939	 5.7102485514	-0.6201483391	-0.246436
C	 1.3686758159	 5.5704275753	 0.6821139934	 0.014082
N	 1.3547995465	 4.2560769127	 1.0487643978	-0.298821
H	-0.6777906321	 1.7853268092	-0.7009582895	 0.165254
H	-0.4379884908	 1.786098777	 1.0388139943	 0.148458
H	 2.074714493	 1.6021521429	 0.6564614634	 0.128664
H	 1.7967241468	 1.654866852	-1.0742591062	 0.14646
H	 1.5376640424	 4.2394651537	-2.1798968855	 0.11178
H	 1.3295066261	 6.3700344323	 1.4068963859	 0.13406
H	 1.3414880408	 3.9015159005	 1.990953876	 0.265563
