17
gdb 42758	2.68854	1.55259	1.27076	2.9079	79.46	-0.2324	-0.0109	0.2215	1037.8391	0.136376	-384.664502	-384.656786	-384.655842	-384.696513	30.411	
O	-0.0086714508	-0.0032285597	 0.0402437693	-0.308492
C	-0.0319577647	 1.1856886665	-0.0180366737	 0.406142
C	-1.0882754972	 2.3004643471	 0.0471149723	-0.156986
C	-0.0410857575	 3.0132939974	 0.9616055291	-0.277867
C	 1.0306719764	 2.3336843504	 0.0278301049	 0.117201
C	 0.7227746045	 3.0244830211	-1.3307755325	-0.269989
C	-0.8455476957	 2.9981749917	-1.3100401295	-0.231437
C	 2.3955195965	 2.129301365	 0.412739256	 0.072444
C	 3.5390320957	 1.9413202384	 0.7346987971	-0.338928
H	-2.1112680838	 2.1090361123	 0.361500234	 0.091495
H	-0.0493038033	 4.1055047737	 0.9519129434	 0.112491
H	-0.0127612854	 2.6297345074	 1.9820512175	 0.12866
H	 1.1285938789	 4.0385518012	-1.3508785651	 0.117054
H	 1.1500285254	 2.4707494834	-2.169468178	 0.123815
H	-1.267381142	 2.4359282964	-2.1465458285	 0.118161
H	-1.2756740174	 4.0028276213	-1.3250035848	 0.11146
H	 4.5470337805	 1.7708156865	 1.0214232486	 0.184775
