23
gdb 100763	2.90806	0.88632	0.81628	1.7203	78.46	-0.2439	0.0622	0.306	1561.6278	0.202446	-462.565975	-462.554515	-462.553571	-462.60243	41.912	
C	-0.1657824002	 1.6096076191	 0.0050423509	-0.383562
C	-0.0272282392	 0.0856578412	-0.0174182311	-0.192883
C	 0.6870177067	-0.4701038834	 1.2155469111	 0.104664
O	-0.0120641486	-0.1569580542	 2.4224345037	-0.433186
C	 0.9203046246	-1.9944708459	 1.1206546058	 0.111939
O	 1.5637115736	-2.3530968917	-0.0918389123	-0.442042
C	 1.7309928994	-2.5198555923	 2.3175668934	 0.112028
C	 1.7109592804	-4.0425837528	 2.4123078612	-0.419603
O	 3.0612731807	-2.0315179547	 2.0857352502	-0.456798
H	 0.8174994669	 2.0926638073	-0.0108571251	 0.114437
H	-0.7283640672	 1.9694693763	-0.8617187836	 0.107798
H	-0.6803590726	 1.9420973178	 0.9110875414	 0.120532
H	-1.0231515044	-0.380939083	-0.0812754968	 0.075848
H	 0.5176558168	-0.2451679775	-0.906261922	 0.118956
H	 1.6639570248	 0.0160328338	 1.3257595135	 0.096407
H	-0.9250685978	-0.446118943	 2.310108106	 0.276115
H	-0.0611302591	-2.4898773277	 1.1148174923	 0.064576
H	 2.5064627874	-2.2169476686	 0.0766556214	 0.289428
H	 1.3229527281	-2.072025897	 3.2322056393	 0.09134
H	 2.0295038618	-4.4864766484	 1.4651659117	 0.134145
H	 2.3766450035	-4.3946388118	 3.2093113758	 0.102282
H	 0.7035216722	-4.403031333	 2.6441972186	 0.118988
H	 3.6569647622	-2.4633464604	 2.7043500548	 0.288591
