15
gdb 12724	3.01965	2.23832	1.71208	3.1382	61.41	-0.2416	0.0149	0.2564	794.6251	0.119273	-399.802004	-399.794847	-399.793903	-399.833243	27.101	
O	 0.1423505351	 1.4421144536	-0.1417645297	-0.466383
C	-0.010012821	 0.0723180274	-0.0408809913	 0.292846
C	 0.4096497801	-0.7212028997	-1.306251134	-0.274757
C	-0.9111595584	-1.5473424379	-1.2611120851	-0.228499
C	-1.3575155529	-0.774695797	 0.0073640361	-0.059881
N	-0.8588314007	-1.3326892283	 1.2660543288	-0.321843
C	 0.3435998133	-0.6518557546	 1.2819839734	 0.320888
O	 1.2718399298	-0.6453735666	 2.0463434053	-0.358152
H	 0.1510480515	 1.8228535567	 0.7433117056	 0.296907
H	 0.4519645156	-0.0453090342	-2.1630211228	 0.125653
H	 1.355189722	-1.2628859925	-1.238822536	 0.118702
H	-1.5565690262	-1.3715443185	-2.1244096829	 0.112545
H	-0.8022919562	-2.6250443374	-1.1205005691	 0.103377
H	-2.3564535	-0.3415485625	 0.0569641258	 0.090415
H	-1.085317492	-2.2099475085	 1.714959776	 0.248182
