17
gdb 107380	3.44017	1.1627	0.97869	3.9949	67.79	-0.2711	0.0059	0.277	1189.9838	0.136024	-458.986438	-458.978389	-458.977445	-459.019352	30.474	
O	 0.1207806346	 1.4045205144	 0.3277675556	-0.409055
C	 0.0852917115	 0.0182119558	 0.0290465636	-0.155469
C	-1.3201857491	-0.503709748	-0.1306377992	 0.275004
C	-2.0841325856	-1.0229229488	 1.0835845462	-0.369299
C	-1.6673862982	-1.9642330709	-0.0073635959	 0.052513
O	-2.6538547173	-2.3066935324	-0.9579690618	-0.218407
C	-3.0117780603	-1.2137349006	-1.7063861966	 0.424096
O	-3.8623481171	-1.2694083952	-2.5414842829	-0.321917
C	-2.1741117572	-0.0038876836	-1.2788514249	-0.438069
H	-0.3672494637	 1.5393955147	 1.1472342007	 0.28537
H	 0.6367681482	-0.0906254109	-0.9117311159	 0.117917
H	 0.6173998687	-0.5742840067	 0.7909076429	 0.088939
H	-1.5412144253	-1.082145042	 2.0218144357	 0.122664
H	-3.1422201384	-0.8009811141	 1.1809479528	 0.131897
H	-0.9473016818	-2.7576224645	 0.1495549723	 0.119616
H	-2.8409561496	 0.8258752808	-1.031585087	 0.147026
H	-1.5638860095	 0.3192554521	-2.1288248055	 0.147173
