16
gdb 55247	4.08163	0.9632	0.91447	6.0333	65.52	-0.2628	0.0024	0.2652	1268.6375	0.125174	-475.104363	-475.095868	-475.094923	-475.138679	30.441	
N	-0.1017419869	 1.2639856945	 0.6680962162	-0.526903
C	-0.0072780994	 0.2115590629	-0.188973838	 0.40296
O	 0.9927626393	-0.0234425356	-0.8403721083	-0.363565
C	-1.2541205227	-0.6640643177	-0.2999426327	-0.124653
C	-1.7816323906	-0.7123482647	-1.7526220076	-0.089761
O	-2.3852262204	-2.0022112892	-1.9137247593	-0.216254
C	-1.930623251	-2.8770280235	-0.9722153601	 0.429714
O	-2.2750280466	-4.0205323447	-0.9389451734	-0.331064
C	-0.9613547335	-2.1488658933	-0.048118601	-0.368145
H	 0.707222278	 1.8507301731	 0.7950915272	 0.268346
H	-0.9112474518	 1.424860259	 1.2405661476	 0.264464
H	-2.0487112096	-0.3167266467	 0.3681460557	 0.079229
H	-2.5416738117	 0.0422056153	-1.963948231	 0.125634
H	-0.9524082034	-0.608981691	-2.4594894158	 0.143392
H	 0.0604384772	-2.3852165282	-0.3657790917	 0.166811
H	-1.089699937	-2.4798791204	 0.9825255321	 0.139797
