18
gdb 23326	3.42908	1.29377	1.2088	1.969	74.89	-0.2395	0.0071	0.2465	1080.2238	0.149736	-439.054156	-439.046863	-439.045919	-439.085833	29.327	
O	-0.1155685589	 1.332361428	 0.0268376564	-0.393796
N	 0.0268164871	-0.0686120762	 0.0297066397	-0.267877
C	-1.1056965417	-0.6403746213	 0.0109639884	 0.473331
C	-2.509110552	-0.0543146922	 0.0106596562	-0.313188
C	-3.3646127676	-1.346426096	-0.024985062	-0.063106
C	-3.1314844505	-2.0181464193	-1.3890412487	-0.068841
O	-1.7708592099	-2.4915591867	-1.3205533283	-0.276414
C	-1.2847755045	-2.1432880142	-0.0087878119	 0.010066
C	-2.535778305	-2.2991615496	 0.8712722081	-0.241863
H	 0.8006725719	 1.6296858119	 0.0428477187	 0.306945
H	-2.6798347204	 0.5324568602	 0.9202025021	 0.124887
H	-2.6783070347	 0.6117216782	-0.840928113	 0.127295
H	-4.4145858148	-1.2106181713	 0.2341860607	 0.074548
H	-3.8038929784	-2.8694197082	-1.5563019609	 0.099026
H	-3.2363801159	-1.3212497871	-2.229335192	 0.102427
H	-0.3971419318	-2.7334724606	 0.2078663381	 0.089444
H	-2.4006209249	-1.9311201978	 1.8915589058	 0.10837
H	-2.9079170479	-3.3262436977	 0.8894079224	 0.108744
