18
gdb 109137	4.14391	0.97805	0.8295	4.4239	76.35	-0.2446	0.0119	0.2565	1362.2262	0.147714	-439.094211	-439.085301	-439.084357	-439.128641	32.203	
O	 0.0981029465	 1.4339453886	-0.1013976541	-0.41011
C	 0.0330564779	 0.0237641305	-0.061523803	-0.163737
C	-1.3959537106	-0.4198589713	 0.0597139675	 0.258006
C	-2.448074334	 0.3898334372	 0.0078339958	-0.152549
C	-3.8326663747	-0.1733430245	 0.1730946885	-0.347307
C	-3.9530624014	-1.5870953624	-0.3522052659	 0.393919
N	-5.0449853762	-2.0163297635	-0.8290888775	-0.516134
O	-2.8429782463	-2.3765469612	-0.3063833626	-0.245436
C	-1.6267555428	-1.8913785045	 0.272663671	-0.165701
H	 1.011005085	 1.6890030076	-0.2601241689	 0.293579
H	 0.4701620364	-0.4265906624	-0.970852213	 0.102734
H	 0.6125533878	-0.3818626316	 0.7884004091	 0.096181
H	-2.320925699	 1.4563607393	-0.1327042481	 0.119125
H	-4.1099322	-0.1775253102	 1.2389943143	 0.1366
H	-4.5916065583	 0.4275175558	-0.3305201678	 0.14493
H	-4.939164383	-2.9896780881	-1.1230699294	 0.215179
H	-0.8337198368	-2.4908339145	-0.1879358801	 0.120244
H	-1.6253176306	-2.1316677749	 1.3475973741	 0.120477
