16
gdb 44584	3.24942	1.58672	1.42308	2.9248	66.54	-0.2462	-0.0003	0.2458	933.646	0.126877	-437.885486	-437.878891	-437.877947	-437.916682	26.055	
O	-0.3930264571	 0.2771096157	 0.5242213071	-0.321014
C	-0.1523642105	 1.3597882765	 0.0977808531	 0.44039
O	-1.0058281283	 2.2109462895	-0.562505656	-0.255015
C	 0.0386092983	 3.250724247	-0.6726676793	 0.093569
C	-0.125634649	 4.4368194847	 0.2540588026	-0.039221
C	-0.6520515006	 4.1657334853	 1.6182284271	-0.255042
N	 0.7893777344	 4.3109866178	 1.4174422242	-0.092532
C	 1.5324061882	 3.0377483565	 1.2916409399	-0.195256
C	 1.048022932	 2.3095509789	 0.0189804568	-0.229248
H	 0.1810935607	 3.5161890209	-1.7192765604	 0.104183
H	-0.2152157216	 5.4236375774	-0.188368694	 0.101473
H	-1.1166052898	 4.9703347806	 2.1807503887	 0.126731
H	-1.0664495852	 3.1811480709	 1.8189714949	 0.140967
H	 2.5939792138	 3.2828782819	 1.1966500176	 0.123509
H	 1.41101346	 2.430802629	 2.1939070056	 0.134324
H	 1.8603251649	 1.9073758873	-0.5875477479	 0.122183
