18
gdb 82024	2.37701	1.49802	1.35518	1.6635	71.59	-0.2443	-0.0285	0.2158	1046.4037	0.145421	-439.04149	-439.032463	-439.031519	-439.075325	33.291	
C	-0.0928916067	 1.7044296172	 0.2460652154	-0.459355
C	 0.0091745675	 0.1882301436	 0.118582693	 0.181862
C	-1.3971948242	-0.3854627327	 0.065902278	 0.127437
O	-1.9589441204	-0.7207968558	-0.9454123083	-0.258656
C	 0.9537534214	-0.419549931	-0.9711091097	 0.042707
O	 1.7680020741	 0.4489856042	-1.7241122865	-0.430192
C	 1.6826183623	-1.1085358293	 0.1698597628	-0.032425
C	 2.1458653001	-0.1346313947	 1.1757615089	-0.244469
N	 0.7322214573	-0.5488375713	 1.2250660264	-0.174393
H	 0.8889223224	 2.1768995298	 0.1851922517	 0.141012
H	-0.7054358088	 2.1099517924	-0.5659198292	 0.131908
H	-0.5590333796	 1.9795663075	 1.1980180452	 0.132319
H	-1.8842347073	-0.4615789875	 1.0626872394	 0.09316
H	 0.4044399807	-1.1150563688	-1.6124100521	 0.100529
H	 1.2801585946	 0.7132773702	-2.5106193417	 0.291021
H	 1.9879644956	-2.1490745432	 0.1791346274	 0.099836
H	 2.7174126448	-0.5244307206	 2.0123319073	 0.126608
H	 2.4140190864	 0.8722871998	 0.8748866018	 0.13109
