12
gdb 127213	3.48019	1.38549	0.99725	2.9121	63.	-0.2799	-0.0844	0.1955	1065.2916	0.077557	-468.827092	-468.819251	-468.818306	-468.860163	26.879	
C	-0.0241894883	 1.4398576486	 0.0596213128	-0.357439
N	-0.0019063693	-0.0130271301	 0.0449754157	-0.209752
C	-0.0163240655	-0.7792708675	-1.1143993462	 0.509248
O	-0.0476945501	-0.4290098996	-2.2558869033	-0.381101
O	 0.0144993661	-2.0863701036	-0.6715615719	-0.218086
N	 0.0464315977	-2.134769132	 0.7236831541	-0.15589
C	 0.0364122537	-0.8903198801	 1.0963950279	 0.328866
C	 0.0611000175	-0.4826501115	 2.4587559654	 0.274115
N	 0.07964175	-0.0970585749	 3.548220803	-0.30971
H	 0.8745205149	 1.8359850569	 0.5385971569	 0.165647
H	-0.0555529943	 1.7610392065	-0.98231304	 0.188425
H	-0.9094532625	 1.8080530573	 0.5837579957	 0.165677
