25
gdb 91379	2.98004	1.14738	0.97499	0.2094	92.2	-0.2745	0.0766	0.3512	1367.6923	0.230694	-352.371617	-352.362508	-352.361564	-352.405301	36.182	
C	-1.300258426	 0.793761577	-0.1036269255	-0.410911
C	-0.1437905159	-0.1949402767	-0.0640372584	 0.039536
C	 1.0920959468	 0.0354222354	-0.9809628144	-0.254474
C	 2.0234576135	-0.4334065008	 0.1778082108	 0.015371
C	 3.1589305492	 0.4935845021	 0.658822927	-0.242473
C	 2.6971443252	 1.002892995	 2.0469717585	 0.064756
C	 3.3296100005	 2.3227793254	 2.483804874	-0.406979
C	 1.1589988013	 1.0337660124	 1.9228610944	-0.230838
C	 0.8194195967	-0.2605256941	 1.1627395192	-0.027013
H	-0.961945659	 1.8235985514	 0.0510157913	 0.112667
H	-1.8076899	 0.7596901506	-1.0745989193	 0.110778
H	-2.045998369	 0.5684514821	 0.667418939	 0.110636
H	-0.5353946389	-1.2033029279	-0.2415370575	 0.067291
H	 1.1282871528	-0.5292520693	-1.9164421052	 0.090968
H	 1.2389509079	 1.0951308052	-1.2176693455	 0.089869
H	 2.3469706204	-1.4687541602	 0.0484156422	 0.060361
H	 4.1296245203	-0.009241018	 0.7128107511	 0.090468
H	 3.2819059751	 1.3429331188	-0.0256036137	 0.089041
H	 2.9538242653	 0.2322541918	 2.7883699767	 0.067403
H	 3.0936400868	 3.1229961613	 1.7719351467	 0.109483
H	 2.9655888235	 2.6356029494	 3.468492935	 0.109275
H	 4.420585289	 2.2438903734	 2.5438000308	 0.11011
H	 0.6566908875	 1.1098563177	 2.892274746	 0.089674
H	 0.8686963419	 1.9202181748	 1.3440411915	 0.09022
H	 0.6301989853	-1.0795187869	 1.8631675353	 0.054782
