22
gdb 14056	3.01865	1.58088	1.40077	0.034	82.57	-0.2475	0.0852	0.3327	1052.2255	0.199763	-313.053557	-313.044576	-313.043632	-313.086963	33.688	
C	 0.0286695574	 0.7364477003	-2.2019719196	-0.408756
C	 0.0706722916	-0.3465262596	-1.1447774505	-0.087997
C	 1.2851603073	-0.5990390748	-0.2675839	-0.076963
C	 2.5669816157	 0.1966211242	-0.3857284076	-0.408469
C	 0.0252319402	-0.014304046	 0.3220845653	 0.356158
C	-0.1104506342	 1.3667097798	 0.9871572768	-0.292075
C	-0.7203548931	 0.6589354484	 2.233531644	-0.202685
C	-0.8377132244	-0.6610153132	 1.4157355632	-0.295753
H	 0.528906997	 1.6520902515	-1.8748698605	 0.116896
H	 0.5107225888	 0.4094514832	-3.1302953244	 0.114171
H	-1.0065953009	 1.0025649449	-2.4443113893	 0.113963
H	-0.4773377224	-1.2451702359	-1.4242010893	 0.074133
H	 1.450666439	-1.6472292332	-0.022749665	 0.074854
H	 2.3820846201	 1.252109118	-0.6022789515	 0.116768
H	 3.1428926996	 0.1516314012	 0.5458912743	 0.113344
H	 3.2043076393	-0.1959933267	-1.1861739237	 0.114661
H	 0.8106544657	 1.9322072477	 1.1541443249	 0.095478
H	-0.8240193792	 2.0217290079	 0.4762245955	 0.096751
H	-0.0075477935	 0.578906937	 3.0579477786	 0.101503
H	-1.6514415552	 1.0762090843	 2.6232713677	 0.095369
H	-1.8616416073	-0.8683999314	 1.0864586746	 0.09517
H	-0.4385334114	-1.5651529076	 1.8854295365	 0.093481
