18
gdb 66855	2.56739	2.08514	1.82273	2.1817	73.21	-0.2253	0.0656	0.2909	859.1433	0.149964	-401.88793	-401.881398	-401.880453	-401.918295	27.933	
O	-0.0816727356	 1.402887982	 0.031942996	-0.495938
C	 0.0148013386	 0.0213600336	 0.0074134559	 0.415338
C	-1.3138340879	-0.7741824638	 0.0630408254	-0.112228
C	-0.7259998032	-1.7628363984	-0.9021695252	-0.058478
C	 0.5061505106	-0.8581516839	-1.1928726862	-0.117861
C	 1.8027506248	-1.2152652199	-0.4394012314	-0.250203
C	 1.0832898898	-0.7853343086	 0.8714052235	-0.126098
C	 0.2559303449	-1.9618346463	 1.4052070369	-0.155775
N	-0.9179575681	-2.0916685866	 0.5219142521	-0.104227
H	 0.7822000597	 1.78100895	-0.1632206864	 0.284087
H	-2.3172309038	-0.3914404888	 0.2091773059	 0.094646
H	-1.211558357	-2.4108555333	-1.6233460023	 0.094489
H	 0.5264746764	-0.4789284198	-2.2161388229	 0.07141
H	 2.1657888726	-2.246837727	-0.4848429814	 0.095225
H	 2.6215266992	-0.5426411606	-0.7145085108	 0.089553
H	 1.6545480084	-0.2505612426	 1.6331642785	 0.066235
H	 0.8189563	-2.9004579818	 1.4250832081	 0.104517
H	-0.1214578695	-1.768480504	 2.4153756543	 0.105308
