15
gdb 123803	5.62154	0.95564	0.85147	3.9931	67.87	-0.2491	-0.057	0.1921	1297.3269	0.112953	-450.050648	-450.043032	-450.042088	-450.083804	27.791	
C	-0.3280953289	 1.180351303	-0.1611994374	-0.240009
C	 1.1222952662	 1.1117954867	 0.2442267293	-0.291123
C	 0.3520849924	-0.1545734213	-0.0078551183	 0.041373
N	 0.0188104496	-0.9589657914	 1.1318844246	-0.376299
C	-1.0912728468	-1.740959484	 1.1353602788	 0.517653
N	-2.0877062325	-1.6964421601	 0.286771992	-0.200597
O	-2.9516876848	-2.651994994	 0.7707422614	-0.145882
N	-2.4121101762	-3.2303702168	 1.8891806223	 0.050323
N	-1.2957740632	-2.6963839071	 2.1227926356	-0.238437
H	-1.0497082671	 1.4539712384	 0.5986360136	 0.132637
H	-0.5767976362	 1.5025192886	-1.1651957179	 0.127882
H	 1.8826443824	 1.3901353562	-0.4759490445	 0.125305
H	 1.3643049774	 1.347518994	 1.2744783337	 0.124229
H	 0.5677840878	-0.7058996398	-0.9213909058	 0.107913
H	 0.7774455198	-1.3167102625	 1.6930991727	 0.265031
