18
gdb 74701	3.13879	1.66143	1.48227	1.5437	75.79	-0.2369	-0.0019	0.2351	962.7487	0.150308	-401.972362	-401.965283	-401.964339	-402.003574	28.698	
C	-0.0357178638	 1.477800398	 0.0619491956	-0.456648
C	-0.0004482198	-0.0147773428	-0.0698188541	 0.401573
N	 0.0010808705	-0.5956891079	-1.2050856456	-0.310794
C	 0.0093186186	-2.073224945	-1.1640219429	-0.027191
C	 0.9083027357	-2.5386275155	-0.0019244427	-0.247809
C	 0.0025474396	-2.0732675167	 1.1413488847	 0.074477
O	 0.0178783767	-0.6123464136	 1.1583440078	-0.282804
C	-1.3668590233	-2.5249945262	 0.6666112006	-0.084208
C	-1.3646193394	-2.521164554	-0.6693025869	-0.060922
H	 0.8218236798	 1.8309303188	 0.6434617804	 0.135205
H	-0.0224166235	 1.9304822538	-0.9288588601	 0.143554
H	-0.9395725194	 1.7880092076	 0.5968363573	 0.136552
H	 0.2907702007	-2.4520195376	-2.1474650781	 0.071253
H	 1.0231809672	-3.6248913039	 0.01554051	 0.106166
H	 1.8912017683	-2.0612828296	 0.0032609629	 0.108379
H	 0.2946356661	-2.3685224046	 2.1488324438	 0.082294
H	-2.2133747646	-2.6841495288	 1.3225559813	 0.103509
H	-2.2135566092	-2.6850751419	-1.3219277941	 0.107415
