15
gdb 128802	4.68619	0.93709	0.88778	3.3666	63.08	-0.2668	-0.0253	0.2415	1300.588	0.11213	-491.069317	-491.060905	-491.059961	-491.103709	29.357	
C	-0.1092130881	 0.5211512642	 0.3615155409	-0.243282
O	 0.9615014286	 0.3829024911	-0.5557583976	-0.212908
C	 0.6781261152	-0.4632782447	-1.6341973935	-0.183185
C	 0.5646988964	-1.9162257501	-1.2557730548	 0.402125
N	-0.1973020155	-2.8187931583	-1.8009450857	-0.39101
C	 0.1559743968	-3.9404326485	-1.0907933341	 0.434738
O	-0.3889256574	-5.1326516719	-1.3235052793	-0.39844
N	 1.0590667077	-3.7660680524	-0.1598244808	-0.197342
O	 1.3380027528	-2.3875701631	-0.2791177387	-0.18599
H	-1.0160865299	 0.896865791	-0.1352956791	 0.112201
H	-0.3462592588	-0.4273049463	 0.862299586	 0.126325
H	 0.2125509301	 1.244843669	 1.1125974311	 0.140885
H	-0.2502393025	-0.1900433382	-2.157332885	 0.12759
H	 1.5077430412	-0.3509929317	-2.3418323885	 0.147643
H	-1.0224864466	-5.0204745002	-2.042796251	 0.320652
