21
gdb 95358	2.7135	1.5539	1.07898	1.5553	84.33	-0.2351	0.0174	0.2525	1168.7934	0.184536	-387.109226	-387.10104	-387.100096	-387.14199	31.817	
C	-0.3998818868	 1.4431399431	 0.0979443235	-0.411081
C	 0.0434095997	-0.0123611662	-0.0158777975	-0.118548
C	 1.1392636962	-0.2674641612	-1.0914229793	-0.074701
O	 1.8552991988	-1.4496557023	-0.7176122637	-0.287122
C	 1.5954599158	-1.7413888905	 0.6592928234	 0.086155
C	 2.792885602	-1.7514423697	 1.6278946089	-0.243444
C	 2.2085188888	-1.1219170247	 2.9279619267	-0.251649
C	 1.0934141587	-0.2354771769	 2.3977484488	-0.233774
C	 0.7635904217	-0.590001042	 1.1590674021	 0.312652
H	 0.4469070316	 2.0879079066	 0.3549818359	 0.121356
H	-0.8274194925	 1.8017882749	-0.8439861522	 0.11706
H	-1.1618855262	 1.5621728511	 0.8743590928	 0.121199
H	-0.8237728675	-0.6426054927	-0.2613295566	 0.087947
H	 0.7257131675	-0.4165810063	-2.0945275161	 0.102012
H	 1.8235960872	 0.5946294363	-1.1276360303	 0.090794
H	 1.0553742928	-2.7013128155	 0.7003774013	 0.072481
H	 3.2263237712	-2.7427644731	 1.7829097427	 0.094671
H	 3.570552363	-1.0992749571	 1.2174851734	 0.11071
H	 1.8252974018	-1.8958299199	 3.6079735805	 0.107726
H	 2.9556743148	-0.5580009388	 3.4972015085	 0.103694
H	 0.6718385113	 0.5872838251	 2.9646247373	 0.091861
