20
gdb 17784	5.79367	1.01273	0.9947	2.0418	75.34	-0.2326	0.0821	0.3147	1264.6652	0.176905	-348.935935	-348.927923	-348.926979	-348.968933	30.194	
C	 0.0970782072	 1.5855117407	 0.2046403759	-0.380961
C	 0.0302443658	 0.0696454028	 0.0024064436	-0.155245
C	 0.8809801143	-0.417134761	-1.1800810458	-0.235979
C	 0.8513864292	-1.9303232569	-1.3360858606	 0.05442
C	-0.3364078676	-2.7171860712	-1.9708983771	 0.040793
C	 0.0687823271	-2.2361954068	-3.384854416	-0.229024
C	 1.3327352918	-2.6822162262	-2.611006976	 0.020057
O	 0.5789782293	-3.8700752068	-2.1429209389	-0.310347
H	 1.1243620039	 1.9136435245	 0.3987375072	 0.114918
H	-0.2568135532	 2.1199414571	-0.6840770209	 0.113938
H	-0.5194070711	 1.9031956807	 1.0512427417	 0.113205
H	 0.3598867896	-0.4388405028	 0.9176375049	 0.098987
H	-1.0130051576	-0.2346380571	-0.1531779177	 0.097796
H	 0.5480520199	 0.0867508799	-2.0944931936	 0.095473
H	 1.9229643813	-0.1043744585	-1.0249659646	 0.098653
H	 1.2071422849	-2.4330690727	-0.4313028652	 0.079703
H	-1.3289433565	-2.9250904879	-1.5690832877	 0.089852
H	-0.227767112	-2.9051977116	-4.1933023625	 0.107815
H	-0.0519960177	-1.1831348677	-3.6449318587	 0.096625
H	 2.3474484314	-2.8459933685	-2.9767853381	 0.089319
