16
gdb 44698	3.12794	1.38275	1.20125	3.2809	69.31	-0.2525	-0.0311	0.2214	1045.2673	0.125281	-437.918831	-437.91155	-437.910605	-437.951167	27.905	
N	 0.1405335672	 1.0783541034	 0.4734498155	-0.540266
C	 0.039390732	-0.0961450966	 0.0515217913	 0.436879
O	 0.9796851883	-0.9398444678	-0.5090571973	-0.267945
C	-0.0118863962	-2.0057073419	-0.6932894571	 0.100881
C	 0.2458192055	-3.197050454	 0.2099032422	-0.338887
C	-0.4320870047	-2.8600876867	 1.5495235288	 0.383832
O	-0.2045429651	-3.3928454398	 2.600859546	-0.291485
C	-1.4704655128	-1.7500688536	 1.3137803159	-0.33509
C	-1.0936755162	-1.1013732988	-0.021546206	-0.181045
H	 1.0905432667	 1.4377932641	 0.366359576	 0.232337
H	-0.1190357115	-2.2363510836	-1.7535966389	 0.101264
H	-0.2337961265	-4.0992126218	-0.1913381999	 0.137646
H	 1.3065681943	-3.4187287875	 0.3435165865	 0.152105
H	-2.4591371788	-2.2222153313	 1.2615090828	 0.137233
H	-1.4866428428	-1.051955642	 2.1529907634	 0.159793
H	-1.9422898093	-0.7885061621	-0.6282931691	 0.112746
