21
gdb 91091	2.76893	1.56426	1.43812	1.7062	80.46	-0.2417	0.0741	0.3158	1036.8896	0.18494	-387.076181	-387.068603	-387.067659	-387.107986	31.023	
C	 0.2594838406	 1.5301990273	-0.2890215479	-0.411913
C	 0.0959933222	 0.05968271	 0.0367275869	 0.15687
O	 0.7609881112	-0.8143144337	-0.9095639979	-0.312571
C	 1.3460450025	-1.6078841657	 0.1579001041	 0.11257
C	 2.8630680231	-1.6391393294	 0.205877778	-0.050802
C	 3.5704926601	-0.3894696713	-0.2560074329	-0.285857
C	 3.3134244049	-0.5910472687	 1.2109547382	-0.027626
C	 2.0872992359	 0.0578879291	 1.8589968932	-0.260555
C	 0.8385514021	-0.6038822059	 1.2267975913	-0.099895
H	 1.3086102975	 1.8371245174	-0.2968008153	 0.123785
H	-0.16176609	 1.7381793792	-1.2778206495	 0.127249
H	-0.2753105593	 2.1452474977	 0.4432567842	 0.114697
H	-0.9769102362	-0.1825416352	 0.0672566341	 0.06973
H	 0.9133269921	-2.614387321	 0.1732161397	 0.069146
H	 3.366001608	-2.5950721251	 0.1174899326	 0.079474
H	 4.5931746479	-0.4974938564	-0.6006038877	 0.106735
H	 2.9829613375	 0.3287137142	-0.8151369591	 0.12847
H	 4.1717711439	-0.7811977943	 1.8464446463	 0.081233
H	 2.1014469103	-0.1388008117	 2.9356047297	 0.100739
H	 2.0850516417	 1.1473422863	 1.7454644135	 0.104992
H	 0.1689742641	-1.0026823327	 1.9905313084	 0.073529
