17
gdb 46729	2.97442	1.76603	1.43027	1.6606	71.63	-0.243	0.0157	0.2587	933.5242	0.138973	-417.96974	-417.962977	-417.962033	-418.000925	27.093	
N	-0.0262088456	 1.212331961	-0.368026989	-0.541236
C	 0.0105988864	 0.0082624819	 0.0061430161	 0.404508
O	 1.144878312	-0.6360829038	 0.4385780636	-0.24909
C	 0.853214869	-1.930580091	 1.0073310701	-0.116216
C	-0.5957081196	-2.2547281242	 0.641988721	-0.000681
C	-1.1459635182	-0.9571364446	 0.0213497369	-0.124105
C	-1.3787869868	-1.7827611155	-1.2584893276	-0.021016
C	-0.1499933231	-2.4394010826	-1.7333108154	-0.259321
N	-0.8798476011	-3.065504233	-0.6085741015	-0.150314
H	 0.8967378621	 1.6432346298	-0.2885517798	 0.222785
H	 1.568967006	-2.6525172782	 0.6035589429	 0.130788
H	 0.9911974581	-1.8676806179	 2.092360102	 0.120779
H	-1.1550800484	-2.6860540513	 1.4712807055	 0.099295
H	-2.0474065077	-0.5268255236	 0.451832965	 0.110706
H	-2.2953090608	-1.7556853394	-1.8372507503	 0.106652
H	-0.2294035266	-3.0308252869	-2.64003043	 0.128554
H	 0.8245254545	-1.9851891309	-1.5799882298	 0.137913
