22
gdb 70152	2.59728	1.48987	1.12698	1.9055	88.31	-0.2198	0.0111	0.2308	1178.2265	0.196651	-367.206592	-367.198136	-367.197192	-367.239303	33.81	
C	-0.4015119904	 1.5860526012	 0.6233223137	-0.43373
C	-0.0940635211	 0.1674303601	 0.1749990474	 0.294832
C	-1.2714791139	-0.4815072231	-0.5401140486	-0.253761
C	-1.1008096002	-1.892058294	-1.109140591	-0.233784
C	-1.0377155841	-3.0144342892	-0.0657680696	-0.244648
C	 0.1856533309	-3.05549856	 0.8099507392	-0.075868
C	 0.9660911143	-2.0542193984	 1.2259650159	-0.057332
C	 0.9038434337	-0.5923132983	 0.9820301112	-0.062782
N	 1.2796192547	 0.013187924	-0.3389050176	-0.375544
H	 0.4790432259	 2.0452708945	 1.0783746874	 0.12517
H	-0.6990032804	 2.205499798	-0.2304079511	 0.114503
H	-1.219658254	 1.5989445291	 1.352292358	 0.110918
H	-2.1295422976	-0.4790130187	 0.1465502007	 0.100192
H	-1.5513967844	 0.1902840143	-1.3633430088	 0.100458
H	-1.9559817219	-2.0872146304	-1.7669203493	 0.099319
H	-0.2158977162	-1.945382966	-1.756299637	 0.098092
H	-1.9352223254	-2.9597320042	 0.5705660642	 0.111847
H	-1.116214546	-3.9783475044	-0.5837202232	 0.102033
H	 0.4561622519	-4.0515552803	 1.1565036569	 0.087298
H	 1.7996572772	-2.3313180947	 1.8698795299	 0.08721
H	 1.3565759421	-0.0320964781	 1.7991595781	 0.083789
H	 1.3057408448	-0.7418794111	-1.0217201263	 0.221788
