20
gdb 64045	2.48742	1.68346	1.36734	1.5051	79.22	-0.2318	0.0066	0.2383	1035.2489	0.171933	-403.140357	-403.132097	-403.131153	-403.172446	33.521	
C	 0.0907187022	 1.5652598107	 0.0050626167	-0.413182
C	 0.0216674871	 0.0412528435	-0.026964965	 0.353738
O	-1.3704338367	-0.2929763043	 0.0272307136	-0.469802
C	 0.6510342415	-0.5144065749	-1.3265897054	-0.287952
C	 0.7842650071	-2.016338743	-1.3070414025	-0.110825
C	 1.0257114889	-2.6874205162	-0.1782466553	-0.02483
C	 1.163409809	-1.9773415298	 1.1180756627	-0.090632
N	 2.1189936617	-0.8312071099	 1.1544253132	-0.344623
C	 0.6783880337	-0.5693136931	 1.204172962	-0.063909
H	 1.1315960276	 1.8981284093	 0.0427516874	 0.123069
H	-0.3846972928	 1.9890689095	-0.8843870433	 0.118393
H	-0.4341808954	 1.9488560883	 0.8850249775	 0.116652
H	-1.4287452354	-1.2532059222	-0.0449378615	 0.277567
H	 0.0242978848	-0.191238457	-2.1640243288	 0.104854
H	 1.6394303684	-0.0622039547	-1.4685295536	 0.1294
H	 0.6974345812	-2.548553591	-2.2501942687	 0.092103
H	 1.1258101927	-3.7688139824	-0.1792002247	 0.088663
H	 1.1008309988	-2.586491279	 2.01532591	 0.085263
H	 2.5183885328	-0.7531439168	 2.08658181	 0.232148
H	 0.2374392426	-0.243455697	 2.1442095956	 0.083902
