16
gdb 84189	3.96063	1.06423	0.84773	2.579	85.79	-0.2057	-0.0284	0.1773	1305.0035	0.123242	-400.770636	-400.761908	-400.760964	-400.804092	31.975	
C	 0.0040639761	 1.4762295518	 0.0268419835	-0.353249
N	 0.0090918198	 0.0302931749	-0.0246744707	-0.081023
C	 0.0347455009	-0.7470869665	-1.1797475032	-0.105413
C	 0.0333121778	-2.0686879187	-0.9056384439	 0.092024
C	 0.0036715462	-2.2185999477	 0.6028158971	-0.473435
C	-0.0117905562	-0.7741072946	 1.1121610029	 0.416297
O	-0.0350773124	-0.3708356922	 2.2520612706	-0.375173
C	 0.055293919	-3.1346904576	-1.8212116741	 0.225271
C	 0.0735065049	-4.0800116718	-2.5705289101	-0.43203
H	 0.903634191	 1.8930329206	-0.4388393443	 0.136451
H	-0.8779189103	 1.8880956157	-0.4754283521	 0.136439
H	-0.0183622202	 1.757705847	 1.0808414188	 0.172572
H	 0.0528828732	-0.26564629	-2.1470103029	 0.137146
H	-0.8816267013	-2.7510046593	 0.9657113945	 0.157041
H	 0.87748051	-2.744794187	 1.0009251431	 0.157118
H	 0.0896886315	-4.9039657346	-3.2394806593	 0.189964
