16
gdb 42920	2.94418	1.32144	1.01372	2.7476	69.59	-0.2442	-0.027	0.2171	1146.2553	0.123789	-437.820385	-437.812649	-437.811705	-437.85342	28.687	
O	-0.2364037873	-0.0068928905	-0.0640661557	-0.302093
C	-0.1806846427	 1.1814205288	 0.034979281	 0.434354
C	-1.1770433975	 2.3112418328	-0.0973450548	-0.193063
N	-0.9296858071	 3.1712275563	 1.1147453277	-0.3285
C	-0.0461382634	 3.301488452	-0.0465493286	-0.067817
C	 1.016794857	 2.1982310239	 0.1153836843	-0.146894
C	 1.9071492224	 2.2187351676	 1.3230864591	 0.074919
C	 3.1233191574	 1.4000685781	 1.3887374714	-0.175684
O	 3.2047018711	 2.8053976623	 1.1482251552	-0.2417
H	-2.1304532031	 2.3391589315	-0.6084452769	 0.120758
H	-1.6255358184	 3.9158735436	 1.073828117	 0.244646
H	 0.04920241	 4.2252359058	-0.6011815881	 0.117492
H	 1.6182371921	 2.0718813761	-0.7917337199	 0.111676
H	 1.4116495104	 2.4899168509	 2.2531807035	 0.114977
H	 3.4940657077	 1.0653477184	 2.3561700368	 0.118854
H	 3.3882315714	 0.7633403424	 0.5456045383	 0.118075
