13
gdb 1081	6.65405	2.97219	2.10967	3.7353	59.69	-0.2158	0.0431	0.259	596.5324	0.105012	-303.49932	-303.493938	-303.492994	-303.528757	19.872	
C	-0.013308342	 1.573989629	-0.0568777994	-0.170699
C	 1.5570117634	 1.3922810748	-0.1194020016	-0.367198
C	 1.2660987348	-0.0053246966	 0.4024492949	 0.381723
N	 1.6486398273	-1.1951429739	 0.7957837421	-0.368828
C	 0.4398956863	-1.8028149866	 1.110336268	-0.088793
C	-0.6481065138	-0.9733338022	 0.9028716756	-0.177337
N	-0.0676958657	 0.1852569812	 0.4425930999	 0.019711
H	-0.3731501318	 2.3147180351	 0.6615636385	 0.133085
H	-0.509518423	 1.7151764857	-1.020290644	 0.133082
H	 1.9816954169	 1.452808099	-1.1241279965	 0.134304
H	 2.117373459	 2.0495027385	 0.5495881496	 0.134307
H	 0.4151721173	-2.81921199	 1.4747041802	 0.106451
H	-1.7062319887	-1.1148628741	 1.0391289827	 0.130192
