15
gdb 99437	3.36665	0.7427	0.6258	2.8296	88.75	-0.2595	-0.0387	0.2208	1712.7504	0.110482	-379.6056	-379.59586	-379.594916	-379.64088	33.998	
C	-0.0121072979	 1.4732575096	-0.2224604913	-0.330895
N	-0.0502630916	 0.0793347622	 0.2171334293	-0.263925
C	-1.3602474058	-0.5519393056	 0.0868790226	-0.35574
C	-1.8775685613	-0.5647845434	-1.3129549014	 0.28392
N	-2.2241899014	-0.5231980592	-2.4147315164	-0.323846
C	-1.3448628737	-1.9121286734	 0.6236126047	 0.367734
C	-1.3324369831	-3.0347592461	 1.0699791959	-0.118465
C	-1.3137205462	-4.2995493009	 1.5709865113	 0.287203
C	-1.2973612003	-5.421270509	 2.0158762565	-0.54942
H	 1.0065335596	 1.8480400421	-0.0991003016	 0.134929
H	-0.3195550059	 1.6268288207	-1.2681784763	 0.13145
H	-0.6689381232	 2.0713071951	 0.4186607012	 0.13206
H	 0.6370557552	-0.4749299732	-0.2828351791	 0.240266
H	-2.0696788258	 0.0504487417	 0.67359179	 0.163795
H	-1.2833302886	-6.4090505105	 2.4058992946	 0.200934
