18
gdb 23591	2.9747	1.48588	1.13811	1.1132	79.4	-0.2293	0.0057	0.2351	1085.8474	0.149155	-401.886856	-401.879458	-401.878513	-401.91847	30.221	
O	-0.1356520571	 1.3304385703	-0.0507330601	-0.394838
N	 0.009905216	-0.0695382824	-0.0326567525	-0.24632
C	-1.1239627148	-0.6552736596	-0.0172295266	 0.40332
C	-2.476579916	-0.0309725763	 0.1002080212	-0.115927
C	-3.5392377126	-0.3368093544	-0.9407739624	-0.304374
C	-3.4579961416	-1.174366208	 0.3044823079	-0.048546
C	-2.6719465057	-2.4811162874	 0.2895860211	-0.042781
C	-1.975933198	-2.9190969428	-0.9699779544	-0.305422
C	-1.203568886	-2.1452084684	 0.0828128458	-0.113015
H	 0.7795702303	 1.6271493169	-0.0127151165	 0.304542
H	-2.5372748462	 0.912953117	 0.6264481373	 0.108448
H	-4.3519675985	 0.3793791517	-1.0014068638	 0.117017
H	-3.2531976042	-0.7483634851	-1.9005203247	 0.121206
H	-4.2581038299	-1.0933068455	 1.0305891192	 0.089942
H	-2.9733125667	-3.2406747539	 1.000873773	 0.089654
H	-1.7269988068	-3.9717866197	-1.0539147299	 0.115725
H	-2.2111360493	-2.4530684447	-1.9186526947	 0.120483
H	-0.3987179129	-2.6530236878	 0.5999043799	 0.100886
