15
gdb 25575	6.93518	0.76137	0.69621	2.1436	69.29	-0.2104	-0.0381	0.1723	1519.4596	0.110738	-457.779921	-457.77144	-457.770495	-457.816086	28.989	
O	-0.0885839243	 0.0823945599	 0.3940371406	-0.232312
C	 0.0661462594	 1.1496281219	-0.1347323249	 0.139995
C	 1.4168681791	 1.836060274	-0.2303781152	-0.170537
O	 1.2228260668	 3.0479122229	-0.9533706058	-0.278966
C	 2.3136637	 3.7777251262	-1.2244319609	 0.448736
C	 2.5763349395	 4.627169038	-2.2511929225	-0.309828
C	 3.868071918	 5.1849530608	-1.9576219545	-0.161761
C	 4.2821158523	 4.6271357948	-0.7949547337	-0.023291
O	 3.3274085569	 3.7564964035	-0.3252182627	-0.185753
H	-0.7671408692	 1.7227049335	-0.5960781017	 0.104611
H	 1.8006722777	 2.029457682	 0.7784377832	 0.155851
H	 2.1304662349	 1.1763837371	-0.7418241506	 0.145522
H	 1.9381400941	 4.8247410289	-3.095712456	 0.115458
H	 4.4127417967	 5.9031002002	-2.5503188939	 0.115446
H	 5.170545718	 4.7063176561	-0.1928739713	 0.136829
