18
gdb 65605	3.52706	1.17525	1.15538	3.4951	71.77	-0.2498	-0.0335	0.2164	1121.0634	0.147805	-439.076096	-439.068032	-439.067088	-439.109198	31.16	
O	 0.3141897833	 1.5967898099	-0.5213143518	-0.479448
C	 0.0110067333	 0.3342972216	-0.0006881117	 0.340186
C	 0.5640175898	 0.1252929933	 1.4514625928	-0.285143
C	-0.4805981254	-0.7059778907	 2.1764405816	-0.041904
N	-1.6556328516	 0.087203132	 2.5904840979	-0.32352
C	-1.7319865358	-0.7386387657	 1.3684683845	-0.041934
C	-1.531362496	 0.0707165152	 0.0985947657	-0.28511
C	 0.618285138	-0.7291670358	-0.8986663662	 0.115245
O	 1.2510220575	-0.4557220195	-1.8899957172	-0.279173
H	 0.8364633126	 1.4378230073	-1.323937245	 0.290386
H	 1.5460334221	-0.3594991865	 1.4492278667	 0.102853
H	 0.6778802631	 1.1122048766	 1.9057613156	 0.137801
H	-0.1746316819	-1.5465005279	 2.7907802047	 0.089579
H	-2.1339124362	-0.3923734934	 3.350422365	 0.231403
H	-2.3863989856	-1.6042094873	 1.3626294425	 0.089579
H	-2.028330745	 1.0416851416	 0.158628236	 0.137797
H	-1.9150604367	-0.449665248	-0.7853405126	 0.102844
H	 0.4468009244	-1.7815089528	-0.5904788185	 0.09856
