19
gdb 93107	2.39643	1.7074	1.35234	3.2499	75.29	-0.2393	0.0291	0.2684	1029.0985	0.161004	-419.194908	-419.186811	-419.185867	-419.227392	31.267	
C	-0.0716142961	 1.5802025698	 0.0060796318	-0.402402
C	 0.0262781361	 0.0559940033	 0.057114481	 0.047
O	 0.695279259	-0.4210613892	-1.1320429069	-0.239655
C	 2.0493535501	-0.5150451681	-1.0608248991	 0.130431
N	 2.8185403211	-0.3974733827	-0.0658455713	-0.268452
C	 2.222876134	-0.1692459843	 1.2485618209	-0.213952
C	 0.7397062704	-0.4790759861	 1.2813458241	 0.299306
C	-0.0135877293	-0.642445664	 2.545078637	-0.296189
N	 0.3936940584	-1.8269728981	 1.7674629124	-0.351984
H	 0.9186105117	 2.0422899919	 0.046069803	 0.13808
H	-0.5570971962	 1.8925607449	-0.9221181114	 0.13054
H	-0.6600377783	 1.9505330855	 0.8507336073	 0.123511
H	-0.979832836	-0.3750310494	-0.0014958352	 0.083914
H	 2.4496288012	-0.7316719417	-2.0498185956	 0.123629
H	 2.738992069	-0.8035326275	 1.9754911791	 0.125894
H	 2.4129908767	 0.8717295982	 1.5445649698	 0.110097
H	 0.4949469898	-0.5213678246	 3.4980936608	 0.121878
H	-1.0640228511	-0.3587371286	 2.5592042002	 0.108866
H	-0.4032207804	-2.1975657693	 1.253565012	 0.229488
