14
gdb 130187	3.44894	1.67788	1.13058	1.9123	70.22	-0.1982	0.0018	0.2	990.0481	0.104543	-432.879425	-432.87236	-432.871415	-432.910694	27.241	
N	-0.0173555205	 1.396262671	 0.1601205519	-0.597558
C	 0.0509530709	 0.0090997237	 0.0452864655	 0.225992
N	-1.046684204	-0.7469235916	 0.01679469	-0.301757
N	-0.6245901323	-2.0539722492	-0.0117270591	-0.373458
C	 0.727190341	-2.133732624	-0.017112263	 0.341483
C	 1.1827275019	-0.8319462866	 0.0213795323	 0.241125
O	 2.5467677379	-0.7885491147	 0.0222900698	-0.217669
C	 2.9342906272	-2.1015375616	-0.0149003706	-0.001421
C	 1.8852774779	-2.9755447437	-0.0389979699	-0.345602
H	 0.6624661585	 1.8759803107	-0.4153148129	 0.249901
H	-0.9510190266	 1.7324695046	-0.040355858	 0.252201
H	-1.3163248748	-2.7798863444	-0.0167420559	 0.269441
H	 4.0004846726	-2.262563429	-0.0202224388	 0.137921
H	 1.9579664803	-4.0505689253	-0.0684109213	 0.1194
