16
gdb 49677	2.35176	1.68294	1.54442	4.4	69.43	-0.2421	-0.0386	0.2035	948.5999	0.125614	-437.922991	-437.915304	-437.91436	-437.955536	28.582	
O	-0.9426056001	 1.2224228752	-0.3072339361	-0.265963
C	 0.0916684277	 1.1614522051	 0.314965165	 0.142189
C	 1.2679260331	 2.0557022594	 0.147692692	-0.106633
C	 1.5473322961	 2.8979066923	-1.0871202911	-0.086407
C	 0.4117520024	 3.150903254	-2.0818438327	-0.180466
N	-0.5186971456	 3.9799370175	-1.3347377317	-0.290746
C	-0.1869218506	 4.2079743819	-0.0242383583	 0.415322
O	-0.8422920524	 4.8149505425	 0.7923049482	-0.378959
C	 1.1811411258	 3.5913042924	 0.1848722582	-0.180819
H	 0.2371249725	 0.3782604207	 1.0917436942	 0.087468
H	 2.1564390134	 1.6800484915	 0.6472431917	 0.106083
H	 2.5617333625	 2.8862796965	-1.4661275301	 0.10948
H	 0.8009574356	 3.6839719152	-2.9581193208	 0.113309
H	-0.0623384033	 2.2245487952	-2.4194367489	 0.136456
H	-1.4756909228	 4.1038853907	-1.6250615194	 0.257567
H	 1.8744197357	 4.1112582699	 0.83262927	 0.122118
