18
gdb 85726	1.82528	1.57131	1.01666	4.1254	80.26	-0.2461	0.0167	0.2628	1228.5176	0.14577	-401.926736	-401.917401	-401.916457	-401.961563	33.681	
C	-0.8659171115	 1.2358263226	 0.2705511904	-0.397175
C	-0.1209181348	-0.0667746411	 0.0205702608	 0.051163
C	 0.6801065801	-0.1853065749	-1.3098022641	-0.283059
C	 1.9781050825	-0.4166698171	-0.4634198466	-0.158252
C	 3.0705409003	 0.5212819376	-0.6627333363	 0.346393
C	 3.962233334	 1.3005912859	-0.8657005408	-0.440849
N	 1.1582042753	-0.2130338813	 0.7464042473	-0.044396
C	 1.4187545116	-0.693432242	 1.9890968793	 0.126003
O	 2.4926672493	-1.1232093868	 2.3515811155	-0.320554
H	-0.2092007118	 2.0949051076	 0.1045264813	 0.132494
H	-1.7241746294	 1.3151064146	-0.4052778655	 0.123594
H	-1.2409625889	 1.2851599101	 1.2977354522	 0.126639
H	-0.7872248651	-0.9215439032	 0.1912106957	 0.091658
H	 0.4043478601	-1.0211474692	-1.9521851766	 0.122041
H	 0.7040713206	 0.7348882561	-1.8936532665	 0.126261
H	 2.3593127051	-1.4431241973	-0.5164622432	 0.124822
H	 4.7607096071	 1.9823978435	-1.0254593075	 0.202848
H	 0.5275461355	-0.6356221352	 2.6485511046	 0.070369
