16
gdb 48618	2.61652	1.67642	1.25945	3.9236	69.65	-0.2387	-0.0368	0.2019	998.4452	0.124649	-437.87906	-437.8715	-437.870556	-437.911754	28.368	
O	-0.4839884762	 0.5120142082	 0.7184712233	-0.24121
C	 0.0289652152	 1.088306875	-0.2058839142	 0.051888
C	 1.2715441633	 1.9101891983	-0.0751639715	 0.134482
C	 1.6604402005	 2.702906351	 1.202818077	-0.251149
C	 2.4953522976	 3.4877338334	 0.1590772687	-0.003823
C	 3.5815994443	 2.4737590997	-0.2500666732	-0.345114
C	 2.6350064989	 1.2639723955	-0.439118554	 0.396485
O	 2.8753809233	 0.1496483345	-0.805482732	-0.313724
N	 1.3712459239	 3.2244936968	-0.8082027424	-0.34908
H	-0.3922455292	 1.039037684	-1.2344227041	 0.085591
H	 0.8099863243	 3.2697747414	 1.5801479959	 0.134984
H	 2.182021979	 2.1762287741	 2.0024264359	 0.121373
H	 2.7852217073	 4.5269131282	 0.3080262484	 0.091167
H	 4.0932081378	 2.7369743034	-1.1808819467	 0.1309
H	 4.3399049396	 2.2650470819	 0.510882316	 0.136051
H	 1.6847473505	 3.1311536248	-1.7767221671	 0.221178
