19
gdb 67474	2.53319	1.67412	1.57526	1.4604	73.63	-0.2298	0.0782	0.308	969.7066	0.161538	-422.992263	-422.984889	-422.983944	-423.023622	30.164	
O	-0.0188531119	 1.4023392653	-0.0376881323	-0.466354
C	 0.0049412567	 0.0194045827	-0.0211306675	 0.371361
C	-1.1709182219	-0.9403852767	 0.0808436885	-0.130253
C	-0.6624091198	-1.7435638777	-1.1147789684	-0.272558
C	 0.6480730139	-0.8742325849	-1.0999045123	 0.028234
O	 1.8604663252	-1.495103113	-0.7167070234	-0.267861
C	 1.7108339882	-2.4089278263	 0.3617424618	-0.077432
C	 0.9567665101	-1.8272343077	 1.5757070003	-0.247329
C	-0.1325063067	-0.8310039933	 1.2007061564	-0.108657
H	 0.7683777306	 1.7253944399	 0.4144681833	 0.28685
H	-2.2077291886	-0.7051570275	 0.2885674278	 0.091362
H	-0.5617478306	-2.825561273	-1.00710338	 0.100036
H	-1.2431411103	-1.5393754259	-2.0179435798	 0.10772
H	 0.8480713269	-0.36086589	-2.041538566	 0.090724
H	 1.2121864267	-3.322486569	 0.0104224587	 0.097179
H	 2.7269617736	-2.691440927	 0.6504547714	 0.105588
H	 0.5548683211	-2.6547685373	 2.1731027093	 0.100893
H	 1.6708172608	-1.2977799406	 2.2191910755	 0.102369
H	-0.5398293738	-0.2798292979	 2.0458115966	 0.088129
