18
gdb 126189	2.9517	1.21864	0.92331	2.1129	75.5	-0.24	0.006	0.246	1283.2261	0.146661	-439.102543	-439.093209	-439.092265	-439.137459	33.41	
C	 0.2840109201	 1.658638473	-0.1347195132	-0.373204
C	-0.0579504652	 0.1724161352	 0.072935448	-0.294668
C	 0.5514675687	-0.4000335673	 1.3077607774	 0.382964
C	 0.0345302662	-0.8696670603	 2.4784243656	-0.037953
C	-1.3806514594	-0.9926768557	 2.9420862376	-0.510914
C	 1.2084594924	-1.2386148782	 3.200631483	 0.411239
O	 1.199492322	-1.7652602827	 4.4373249684	-0.419223
N	 2.3187011223	-1.0174923813	 2.5446314708	-0.268
O	 1.9000845245	-0.4772598894	 1.323296117	-0.234216
H	 1.3658020141	 1.8007414199	-0.1974210947	 0.14152
H	-0.1662752477	 2.029467241	-1.0599144625	 0.117532
H	-0.0889929394	 2.2657748556	 0.6954546209	 0.124334
H	-1.1425225435	 0.0379630563	 0.1279852343	 0.116351
H	 0.2884450175	-0.4058706942	-0.792256957	 0.128907
H	-1.6273512381	-2.0287121543	 3.1982321596	 0.139684
H	-1.5618692499	-0.3903855001	 3.8391518674	 0.139065
H	-2.0812171362	-0.6621211609	 2.1710305943	 0.126242
H	 2.1175500316	-1.9254551869	 4.6936653131	 0.310341
