22
gdb 115918	3.5959	1.13178	0.96062	0.5352	82.19	-0.2176	0.0876	0.3051	1308.6309	0.195681	-404.326395	-404.317755	-404.316811	-404.359764	33.456	
C	 0.034073039	 1.5432435633	-0.0801983247	-0.388736
C	 0.0459146676	 0.0147882458	 0.0015345884	-0.190477
C	 0.7222145336	-0.5181092001	 1.2599859193	 0.135737
C	 0.5936500916	-2.0413083989	 1.3955412188	-0.174046
N	 1.5313082307	-2.657617948	 2.3518053853	-0.105151
C	 2.8976808527	-2.8892896553	 1.8763923084	-0.240523
C	 2.6268294258	-1.8302070438	 2.8788655584	-0.01063
C	 2.7180370931	-0.3735064453	 2.4671608967	-0.116739
O	 2.0984907643	-0.1449334516	 1.217905247	-0.254395
H	 1.0525210698	 1.9366777749	-0.030424022	 0.13395
H	-0.4209429382	 1.8845945372	-1.0147482766	 0.110721
H	-0.5362963383	 1.979517155	 0.747463324	 0.110699
H	-0.9787379003	-0.3761663488	-0.0293512993	 0.098364
H	 0.5691864558	-0.4033542277	-0.8671769094	 0.10523
H	 0.2656043532	-0.0416435355	 2.1463226663	 0.062853
H	-0.42597639	-2.2822743961	 1.7207621927	 0.103435
H	 0.7356366354	-2.5082944837	 0.4133806843	 0.101747
H	 3.34355761	-3.8354681496	 2.1729737613	 0.108773
H	 3.1433347967	-2.5566595111	 0.8697095028	 0.116625
H	 2.8601283342	-2.0163717565	 3.9266312549	 0.088253
H	 2.2502855342	 0.2594003973	 3.2406996634	 0.092185
H	 3.7635614293	-0.0621291915	 2.3678040903	 0.112125
