21
gdb 95586	2.29079	1.55352	1.11979	2.4377	78.98	-0.2499	0.0045	0.2544	1150.9554	0.184337	-424.236597	-424.227986	-424.227042	-424.269399	34.344	
O	 0.0646511089	 1.4234060154	-0.0369875452	-0.440876
C	 0.0566121809	 0.0030466104	-0.0117276317	 0.119456
C	 0.8987867611	-0.4942865811	 1.1737198841	-0.208809
C	 1.0928502687	-2.0207875614	 1.2573186608	-0.261675
C	-0.1315364086	-2.7756142195	 1.7170244865	-0.048974
C	-1.3155593017	-2.7601184026	 1.1006368466	-0.082642
C	-1.6228831186	-1.9870963221	-0.1618927863	-0.280959
C	-1.4096132219	-0.4676835872	-0.0410912783	 0.101679
O	-2.1113344654	 0.0858904553	 1.0741051459	-0.451988
H	-0.6150015866	 1.6906978973	 0.5966123315	 0.283265
H	 0.5367540847	-0.3217420899	-0.9449866165	 0.076665
H	 1.874232922	-0.0048691378	 1.0866335103	 0.108076
H	 0.4545825043	-0.1271232115	 2.1078480891	 0.08801
H	 1.4091622451	-2.3925328538	 0.2710458876	 0.110644
H	 1.9230607072	-2.2342329405	 1.937041282	 0.103854
H	-0.0258234894	-3.3742039351	 2.6189930253	 0.0917
H	-2.1287858287	-3.3458213212	 1.5218533048	 0.092599
H	-1.0086069589	-2.3551262791	-0.9960095794	 0.112423
H	-2.6650909735	-2.1590924462	-0.4453595093	 0.11046
H	-1.8590358472	 0.0129969219	-0.9170385085	 0.093836
H	-1.9059530926	-0.4687600511	 1.8373255608	 0.283256
