19
gdb 86891	3.20709	1.08168	0.91613	1.1899	77.38	-0.2519	0.0495	0.3013	1290.6774	0.158091	-422.994061	-422.984672	-422.983728	-423.028468	35.383	
O	 0.0209610769	 1.5334485631	-0.3126746498	-0.435647
C	-0.1848293779	 0.1434948583	-0.1932904506	 0.151114
C	 0.6409581246	-0.5521000715	 0.9112692906	-0.266998
C	-0.2363794822	-1.762225539	 1.3862242445	-0.141848
C	-1.5486851963	-1.6567753804	 0.5439762126	-0.256218
C	-1.6369632314	-0.1694666166	 0.184312988	 0.086882
O	-1.9667759364	 0.6233275079	 1.3166205684	-0.427424
C	 0.4155101395	-3.0576446892	 1.266181614	 0.309021
C	 0.9515038859	-4.1281625647	 1.1498430321	-0.465191
H	 0.9437453127	 1.6779164133	-0.5428410218	 0.283816
H	 0.0032727032	-0.3591696212	-1.1562432776	 0.066943
H	 1.6213169148	-0.8767967227	 0.5561586326	 0.103378
H	 0.786689196	 0.1543380548	 1.7313755937	 0.123209
H	-0.4937190997	-1.6021160702	 2.4374994114	 0.1134
H	-1.4654588057	-2.262250065	-0.3642774319	 0.113888
H	-2.4247166821	-2.0109998825	 1.0949246321	 0.097783
H	-2.3257253394	 0.0293105879	-0.6481467237	 0.068855
H	-2.8615011451	 0.3934150782	 1.5852689075	 0.283629
H	 1.4272249525	-5.0727018105	 1.0576090678	 0.19141
