17
gdb 32497	1.98156	1.69043	0.97362	0.5949	82.74	-0.2218	-0.0058	0.216	1202.7367	0.13529	-384.695475	-384.686802	-384.685858	-384.729074	32.328	
C	 0.1387630715	 1.5244481203	 0.1421655037	-0.373359
C	-0.0289331887	 0.0075244923	-0.0530466923	-0.316948
C	 0.6834589355	-0.5141338392	-1.2640538907	 0.144417
C	 0.1443775433	-0.9436115766	-2.4325413996	-0.099752
O	 1.1123141416	-1.3325256829	-3.3127265775	-0.140626
C	 2.2993760101	-1.1486403524	-2.6974280605	-0.116084
C	 2.1190025626	-0.650157787	-1.4370589786	 0.048806
C	 3.1236585342	-0.3418374924	-0.4913894864	 0.252894
C	 3.9611040967	-0.0744885267	 0.3324337917	-0.461387
H	 1.1945817251	 1.7879501835	 0.2500454776	 0.135358
H	-0.2610902887	 2.0747510591	-0.7151282204	 0.117473
H	-0.3891204493	 1.8593293987	 1.0404954126	 0.111568
H	 0.3477958532	-0.5111526956	 0.8367456095	 0.116916
H	-1.0936495196	-0.23921208	-0.1296829133	 0.103245
H	-0.8704702396	-1.0378062841	-2.782808051	 0.140535
H	 3.1798306158	-1.4132981215	-3.2587891055	 0.147605
H	 4.7062977862	 0.1574007045	 1.0524373807	 0.189338
