14
gdb 26798	3.78456	1.12881	0.87462	5.8311	77.17	-0.2087	-0.0282	0.1805	1229.9209	0.103499	-429.093283	-429.084926	-429.083982	-429.126218	30.518	
N	 0.1091947303	 1.4074931023	 0.0805825044	-0.61043
C	 0.0180619219	 0.0253539473	 0.0099433988	 0.32608
C	-1.0970737251	-0.7981944208	 0.001137803	 0.169041
N	-2.4264228647	-0.3158365403	-0.0196726587	-0.617741
N	-0.7205440179	-2.1097588053	-0.0000670503	-0.31983
C	 0.5993777834	-2.1064468258	 0.0066239882	 0.226458
N	 1.0937571087	-0.8139953703	 0.0264500621	-0.349295
C	 1.4573788118	-3.2285169197	-0.0211966671	 0.224784
N	 2.1966857939	-4.1216004487	-0.0392940147	-0.347392
H	 0.7462153462	 1.8174055765	-0.5931855769	 0.253458
H	-0.8164715044	 1.8069230938	-0.0335423145	 0.267782
H	-2.8695964118	-0.4166027302	 0.8898960936	 0.247463
H	-2.9852869702	-0.8570203913	-0.6725491422	 0.249628
H	 2.063968698	-0.5507834975	 0.0875236943	 0.279994
