16
gdb 27789	2.02291	1.77109	0.9503	6.1878	78.13	-0.2123	-0.028	0.1842	1185.9553	0.124489	-437.965865	-437.957548	-437.956604	-437.998522	31.713	
C	 0.0625526695	 1.4822823321	-0.0025433959	-0.468263
C	-0.0592257654	-0.007482592	 0.0229197777	 0.413328
C	-1.2193386079	-0.6977868011	-0.0387603827	-0.32098
C	-1.17985765	-2.1338590456	-0.0033080164	 0.397895
N	-2.3666670779	-2.8190011604	-0.0194315866	-0.579894
C	 0.0353702822	-2.7641739585	 0.0891536669	-0.385286
C	 1.2651784459	-2.0398570707	 0.1589262332	 0.421871
O	 2.3881113696	-2.4622417439	 0.2424686321	-0.361677
O	 1.1305782572	-0.6166448857	 0.1164010955	-0.268224
H	 0.6792811092	 1.7973397571	-0.8507616661	 0.151463
H	-0.917975728	 1.9552656344	-0.0792101625	 0.13021
H	 0.560435823	 1.8365069102	 0.9061282421	 0.152426
H	-2.1618928139	-0.1695340667	-0.1036549894	 0.096246
H	-3.1796864952	-2.347016955	-0.379193638	 0.25918
H	-2.3351258955	-3.8079918086	-0.2077822861	 0.262474
H	 0.1177226974	-3.8436942854	 0.116749336	 0.09923
