19
gdb 72722	2.62759	1.97684	1.55672	1.2488	74.85	-0.2332	0.0447	0.2779	926.5116	0.159676	-422.893927	-422.886788	-422.885844	-422.924809	30.198	
C	-0.0848070186	 1.5008925627	-0.0969769564	-0.447898
C	-0.0852624962	-0.033260264	-0.0679581945	 0.243502
C	-1.2997874216	-0.4702295492	 0.8418948863	-0.20941
O	-0.3643274692	-0.5531488696	 2.0004337519	-0.367636
C	 0.6836596632	-0.7347866623	 1.0087025015	 0.346595
C	 2.0230158524	-0.2243322321	 0.3796480284	-0.345526
C	 1.135196757	-0.6228676992	-0.9217648025	 0.013117
O	 1.0811829661	-2.028595233	-0.8596683551	-0.254146
C	 0.7639982484	-2.2160510666	 0.5329978896	-0.124367
H	 0.7915088165	 1.9321505894	-0.585517006	 0.116963
H	-0.959968443	 1.8344953783	-0.6661328534	 0.118819
H	-0.1627446272	 1.9248899368	 0.9103541002	 0.133881
H	-2.0515485491	 0.3038198304	 1.0110199585	 0.117379
H	-1.7793321013	-1.4322240835	 0.6522717039	 0.119847
H	 2.2261043164	 0.8362414152	 0.4886378078	 0.124442
H	 2.9296495583	-0.8192287404	 0.5179235022	 0.107254
H	 1.3853334644	-0.2807441685	-1.926264932	 0.093196
H	 1.5661956975	-2.7628050526	 1.0413289038	 0.105214
H	-0.1660713138	-2.7792518718	 0.6350629558	 0.108773
