19
gdb 133657	2.37834	1.17202	1.11625	2.3901	64.58	-0.2182	0.0713	0.2896	1209.2604	0.153774	-550.706847	-550.696793	-550.695849	-550.742013	36.264	
C	 0.2529635058	 0.7864855342	 1.2103502663	-0.419662
C	 0.1045243997	-0.4129921106	 0.2567043697	-0.112112
N	-1.256505394	-0.8363838129	-0.0571373772	-0.055633
C	-1.8148056256	-1.7522465133	 0.9233639932	-0.325559
C	-2.1958771003	 0.2224707208	-0.4052255933	-0.337934
C	 0.9031182823	-0.1741346333	-1.0313498232	 0.295573
F	 2.1989681271	 0.0452603037	-0.7374098448	-0.08571
F	 0.8513409967	-1.2228550532	-1.8541766471	-0.066353
F	 0.4739941397	 0.9019573534	-1.7196454403	-0.08709
H	 1.3039355088	 0.9492974981	 1.459148993	 0.134569
H	-0.1343879991	 1.7038262442	 0.7603155786	 0.13514
H	-0.2938707664	 0.5991853623	 2.1381201726	 0.124829
H	 0.6013663291	-1.2776438561	 0.7097593611	 0.106217
H	-2.0172059247	-1.2886439555	 1.9074596072	 0.094733
H	-2.7642429265	-2.1468438447	 0.5473539496	 0.123536
H	-1.1384654255	-2.598536613	 1.0772202001	 0.121891
H	-1.7667600181	 0.8769237391	-1.1640716218	 0.136792
H	-3.0988335137	-0.2329012853	-0.8244698584	 0.121511
H	-2.5057376154	 0.8419064721	 0.4554934245	 0.095261
