12
gdb 131029	2.36296	1.74521	1.00382	3.2136	72.31	-0.276	-0.0831	0.193	1064.5831	0.077824	-431.66614	-431.658781	-431.657837	-431.698338	26.346	
O	-0.0714611195	-0.0089817533	 0.0007901683	-0.23786
C	-0.0124549938	 1.183126062	 0.0086131836	 0.18577
N	 1.1963360391	 1.9160820428	 0.0000318411	-0.109574
N	 2.421022181	 1.3269113854	-0.0182697271	-0.189328
C	 3.2330731908	 2.3617389566	-0.0201063455	 0.028836
N	 2.6325827366	 3.5907814227	-0.0043646877	-0.314648
C	 1.3498767154	 3.2908826912	 0.0081479069	 0.270608
C	 0.2668763147	 4.1973577786	 0.0270540676	 0.257353
C	-0.6605944548	 4.9630707988	 0.0432866544	-0.385447
H	-0.8759221328	 1.8671555951	 0.023522455	 0.129118
H	 4.3059543915	 2.2395145523	-0.0333027158	 0.146816
H	-1.4734302782	 5.6479657775	 0.0580296293	 0.218355
