20
gdb 118896	3.20387	0.99112	0.89917	2.6561	74.49	-0.2306	0.0583	0.289	1355.3571	0.169516	-440.220356	-440.210979	-440.210035	-440.254705	35.047	
O	-0.0870413346	 1.5000749249	-0.0251852156	-0.416233
C	 0.020617154	 0.0873162271	 0.0324462376	-0.089847
C	-1.3804434898	-0.4901663361	-0.1412874357	-0.225704
C	-1.4351151362	-2.012173744	-0.0259200564	 0.382538
O	-0.7017866088	-2.6388643465	-1.0716351979	-0.484233
C	-1.1837418904	-2.697779525	 1.3553529177	-0.227466
N	-2.4842947543	-3.4555085029	 1.2854364471	-0.12613
C	-3.5334322391	-2.4216531739	 1.2671177894	-0.251534
C	-2.8051246558	-2.6883331608	 0.0131480665	-0.059446
H	 0.7951278528	 1.8746339751	 0.0546197826	 0.286668
H	 0.6841431198	-0.2877630886	-0.7640198225	 0.080157
H	 0.4455732066	-0.2399110218	 0.996796695	 0.087346
H	-2.0285310603	-0.0326183033	 0.613235434	 0.105625
H	-1.7661863885	-0.1955786867	-1.1236182523	 0.114747
H	 0.2359723416	-2.4744320424	-0.9292614027	 0.279503
H	-0.3414792928	-3.3922602545	 1.3251849715	 0.108626
H	-1.1005757579	-2.0528220929	 2.2374690365	 0.096312
H	-4.5342495977	-2.8333468372	 1.3559724807	 0.124476
H	-3.3786957574	-1.4951095797	 1.8163783158	 0.111624
H	-3.2518128513	-3.1690972706	-0.8508059812	 0.102972
