17
gdb 35487	3.14741	1.57916	1.49848	4.3515	74.4	-0.2588	0.0271	0.2859	938.6695	0.138967	-380.846554	-380.839788	-380.838844	-380.877717	27.121	
N	-0.1382749196	-1.1902623188	-0.2484576429	-0.334982
C	-0.0732388454	-0.0438061207	-0.1172753533	 0.299927
C	-0.0083369001	 1.4100887268	 0.0513318831	-0.122917
C	-0.6919454852	 1.9232701442	 1.3626998159	-0.244555
C	 0.518810128	 2.2844325291	 2.2248197126	-0.045438
C	 1.4258752447	 1.0291380158	 2.4385006904	-0.259029
C	 2.2371240867	 1.4686115432	 1.2129008594	-0.033552
C	 1.5698853842	 2.8080589543	 1.2026764085	-0.062168
N	 1.3955005053	 1.8972675034	 0.079958577	-0.09481
H	-0.4837953108	 1.8568018807	-0.8277112482	 0.134609
H	-1.3036253328	 2.802772612	 1.1394301275	 0.112991
H	-1.3329817473	 1.1669600081	 1.8220169384	 0.128831
H	 0.2949597773	 2.8832635762	 3.1062810687	 0.080944
H	 2.0296077785	 1.1194030599	 3.3446775788	 0.113415
H	 0.9495931944	 0.0445915809	 2.4208282265	 0.122275
H	 3.2563404209	 1.1876996802	 0.9747912253	 0.103966
H	 1.9399128112	 3.8141544947	 1.0479289825	 0.100491
