18
gdb 78642	3.29139	1.60923	1.23285	3.0665	78.83	-0.2186	-0.049	0.1696	1032.2003	0.146788	-397.975312	-397.967472	-397.966528	-398.006906	31.718	
C	-0.013329703	 1.2725234371	 0.0816385859	-0.321683
N	 0.0931780934	-0.1005925825	 0.5861852739	-0.139412
C	-0.967419153	-0.9711043246	-0.1474822194	-0.022188
C	-0.1201604829	-1.3166914074	-1.3084819327	-0.191846
C	 0.9427514372	-1.0186356504	-0.195316663	 0.153127
N	 1.4562776526	-1.9951773304	 0.4421614024	-0.181378
C	 0.6689157234	-3.1710349059	 0.0110259221	-0.235098
C	-0.6164397996	-2.4962445609	-0.5418324848	 0.260244
N	-1.7503213291	-3.2289751464	-1.0117381693	-0.591684
H	 0.8639054138	 1.8318765101	 0.4177187906	 0.132761
H	-0.0816784577	 1.3437062867	-1.0166611401	 0.100738
H	-0.9001740084	 1.7424804056	 0.5170239282	 0.123879
H	-2.0061879854	-0.661030532	-0.1041531437	 0.116602
H	-0.152085729	-1.0945336208	-2.3667361475	 0.105494
H	 1.1244565227	-3.8103789509	-0.7622552906	 0.100367
H	 0.5116345133	-3.7882087862	 0.9035453968	 0.118041
H	-1.4968509603	-3.8312076625	-1.7899759846	 0.234548
H	-2.1271977883	-3.8225339189	-0.2789466842	 0.237488
