18
gdb 101291	2.36643	1.15605	0.90881	1.8293	74.03	-0.2534	0.0268	0.2802	1305.0302	0.145856	-439.006802	-438.997278	-438.996333	-439.041618	35.332	
O	-0.433574364	 1.3533127282	 0.0451985743	-0.427441
C	-0.889255638	 0.0576773165	 0.4433195915	-0.101292
C	-1.3519134657	-0.7165276659	-0.7952698498	 0.096401
O	-0.3280590558	-0.6794524081	-1.7779114846	-0.452211
C	-1.6618215719	-2.1813770163	-0.5407399949	-0.020031
N	-1.4479640895	-2.7313175371	 0.799481043	-0.325107
C	-2.8294962644	-2.6564678514	 0.267006359	-0.255686
C	-3.7532734192	-1.7596800885	 0.907183385	 0.383913
C	-4.5598528606	-1.0231310036	 1.4107825618	-0.445025
H	-1.2076872929	 1.8860079269	-0.1666810824	 0.287469
H	-0.0270713275	-0.4461002727	 0.8849138191	 0.130185
H	-1.6801192335	 0.1156958538	 1.1979865349	 0.114748
H	-2.2655331481	-0.23142958	-1.1876125306	 0.063706
H	 0.0629681195	 0.20164882	-1.6977814252	 0.286646
H	-1.4029044708	-2.8026317546	-1.3956886915	 0.107436
H	-1.1122164832	-3.6894663075	 0.7524760772	 0.241335
H	-3.2813487569	-3.5876991623	-0.0691293778	 0.113826
H	-5.2673625575	-0.3775219475	 1.8695648412	 0.201127
