21
gdb 101112	3.29664	1.04585	0.96774	0.8713	78.56	-0.2315	0.0761	0.3076	1315.3984	0.181116	-424.179777	-424.170257	-424.169313	-424.214272	35.45	
C	-0.030049009	 1.6444033676	 0.1291284243	-0.400771
C	-0.0340120097	 0.1145143832	 0.007905441	-0.088132
C	 0.7419720805	-0.5462978228	 1.1543234283	-0.079797
O	 2.0907050931	-0.1038060911	 1.0871010305	-0.425285
C	-1.4272908683	-0.4427283298	-0.0431938059	 0.502269
C	-1.8779457974	-1.7157337457	-0.6939311964	-0.343514
C	-2.5547921695	-0.4047577174	-1.0542243571	-0.207298
C	-3.4212210041	 0.0335672502	 0.1175657321	-0.086187
O	-2.3152859817	-0.1239697023	 1.0471761825	-0.333084
H	 0.9926243476	 2.0119924002	 0.2319621405	 0.130239
H	-0.4827849974	 2.1073605259	-0.7531074294	 0.105237
H	-0.6047131161	 1.9550062871	 1.0068565761	 0.126075
H	 0.4663230428	-0.1751123968	-0.9255403688	 0.085094
H	 0.2755100109	-0.2721139484	 2.1126132898	 0.104032
H	 0.6789061963	-1.6408932279	 1.0543378108	 0.087599
H	 2.5474823712	-0.413688882	 1.8739740721	 0.286654
H	-1.2209492112	-2.1087306702	-1.4639136465	 0.114416
H	-2.4051926191	-2.4649169854	-0.1086969344	 0.111336
H	-2.5904536755	-0.0125475766	-2.0617280874	 0.100347
H	-3.7344333084	 1.0826065357	 0.0685836283	 0.108584
H	-4.279065715	-0.5966259036	 0.3826570795	 0.102187
