16
gdb 17874	3.27865	2.11756	1.97009	3.2898	63.92	-0.2245	-0.0205	0.204	769.042	0.132419	-383.734168	-383.727729	-383.726785	-383.764617	25.203	
O	-0.022239378	 0.0336088627	 0.0041144355	-0.314467
C	-0.0316110131	 1.2284687181	 0.000950913	 0.429187
C	-1.1179110766	 2.3173493531	 0.0958747371	-0.145039
C	-0.0347950334	 3.1496111876	 0.8580687052	-0.279051
C	 1.0338816833	 2.3551334245	 0.0473109302	 0.012105
O	 1.1978791904	 2.8542605317	-1.2799399644	-0.275966
C	 0.0442958611	 3.5214556222	-1.7950144112	-0.066484
C	-1.2858648723	 2.8880724057	-1.3357728182	-0.238911
H	-2.0687226622	 2.0751815377	 0.5728029378	 0.089958
H	-0.0488331993	 4.2345334437	 0.7453028097	 0.114817
H	 0.0111498268	 2.8920637145	 1.9186238492	 0.1195
H	 2.027610411	 2.171703823	 0.4574849081	 0.097453
H	 0.0705488478	 4.5775654725	-1.4938459359	 0.102447
H	 0.1434339253	 3.4942587871	-2.8833358531	 0.118587
H	-1.5967101515	 2.0845043906	-2.0114134969	 0.125843
H	-2.0728745394	 3.6504786553	-1.3542617661	 0.110021
