16
gdb 75076	2.24071	1.67568	1.05381	3.3166	72.18	-0.2184	-0.0326	0.1857	1111.4222	0.12312	-437.943986	-437.935348	-437.934404	-437.977595	31.175	
C	-0.1121683031	 1.4807264679	 0.2303910235	-0.499742
C	-0.0318827112	-0.0007318752	 0.0724501977	 0.282677
C	 0.0120509053	-0.7104675019	-1.0614532412	-0.1238
N	 0.0829256536	-2.0959836745	-0.8153736319	-0.330646
C	 0.0862987748	-2.3725035814	 0.5310880422	 0.417238
O	 0.1549471657	-3.4575337047	 1.0613651998	-0.372904
C	 0.0173115215	-0.9853048687	 1.2174034153	-0.346053
C	 1.1731188668	-0.8544460973	 2.2060310293	 0.155587
O	 1.9006352176	 0.0983677023	 2.2937535966	-0.238822
H	 0.7468989976	 1.8541684785	 0.7964852788	 0.158516
H	-0.1357630366	 1.9787345558	-0.7432842473	 0.120264
H	-1.0135288703	 1.7791138791	 0.7814166994	 0.122233
H	-0.0068792356	-0.3558692355	-2.0822756359	 0.131656
H	 0.137280441	-2.8158466615	-1.5165065398	 0.265901
H	-0.8960233153	-0.9777744848	 1.8327373588	 0.142511
H	 1.2839221482	-1.7454664582	 2.8590463445	 0.115383
