17
gdb 72125	2.46956	2.27284	1.75921	0.9499	71.26	-0.2378	0.0061	0.2439	844.5735	0.137747	-421.798198	-421.791659	-421.790715	-421.82856	27.875	
O	-0.0664386511	 1.4048881716	 0.0035647201	-0.481811
C	-0.0125090453	 0.0206706591	-0.0445839109	 0.380185
C	 0.2332297467	-0.8086434925	-1.3305115236	-0.311618
C	-0.350703468	-1.9186657006	-0.4378219004	 0.072933
O	 0.6753878515	-2.1071951713	 0.5265920988	-0.274745
C	 0.7470520952	-0.7504980124	 1.0937533635	-0.023152
C	-0.2311096334	-0.7632048834	 2.2421709613	-0.07962
C	-1.4557025688	-0.859574983	 1.7056266879	-0.078975
C	-1.3114481307	-0.7953776828	 0.223411968	-0.123527
H	 0.8238433055	 1.7520388023	-0.1190047807	 0.283611
H	-0.4344786979	-0.4909004183	-2.134241771	 0.10502
H	 1.254219781	-0.9566274074	-1.6895389409	 0.094989
H	-0.7296553369	-2.8711084906	-0.8000202936	 0.08806
H	 1.7878969548	-0.4919767847	 1.2918345801	 0.068018
H	 0.0429313814	-0.8425297822	 3.2858951328	 0.10041
H	-2.3872825721	-1.0248606284	 2.2322542783	 0.101205
H	-2.1750179818	-0.5484620257	-0.3917402696	 0.079018
