22
gdb 6542	2.65097	1.80856	1.59294	1.2321	77.25	-0.236	0.0687	0.3046	979.964	0.196969	-350.19542	-350.185467	-350.184523	-350.229764	37.757	
C	 0.1224942902	 1.5319069798	 0.2223846233	-0.433554
C	 0.0240536209	 0.0122502495	 0.0054657887	 0.2243
C	 0.6000126254	-0.7049235957	 1.2442149716	-0.403118
C	-1.4602077614	-0.3688644965	-0.1743183321	-0.40314
C	 0.8007636646	-0.455989162	-1.233370396	 0.468032
O	 0.6534707791	-1.8558887575	-1.3522393182	-0.486438
C	 0.8763354381	 0.3412086725	-2.5081327477	-0.346485
C	 2.1194846449	 0.1375845851	-1.6513773117	-0.346644
H	 1.1528844156	 1.8635910605	 0.3829919934	 0.111988
H	-0.2970299668	 2.0996998396	-0.6137363387	 0.112012
H	-0.4471256608	 1.8063036843	 1.1160247293	 0.114128
H	 0.0418302233	-0.4231092604	 2.1433104968	 0.100371
H	 0.5460484707	-1.7890941778	 1.1283891187	 0.129908
H	 1.6495726463	-0.4330687118	 1.4005394891	 0.104906
H	-1.8934499024	 0.1440677689	-1.039830988	 0.10495
H	-1.5718814461	-1.4437820228	-0.3286321799	 0.129941
H	-2.0383978988	-0.0827419684	 0.7106626148	 0.100366
H	 1.1414921085	-2.1530890332	-2.1254765145	 0.278759
H	 0.8056217576	-0.2101634144	-3.4412933582	 0.103084
H	 0.4457643736	 1.3344727634	-2.5554732624	 0.116795
H	 2.5224448631	 0.9942331221	-1.1241253235	 0.116823
H	 2.8792446243	-0.5496779553	-2.0123129845	 0.103016
