19
gdb 97751	3.8174	0.7852	0.75251	1.1814	85.82	-0.2366	0.0325	0.2692	1583.766	0.158856	-385.820662	-385.811529	-385.810585	-385.856173	33.119	
O	 0.1143017007	 0.9754698867	-0.8582968129	-0.409444
C	-0.0615026996	 0.073630086	 0.2301469023	-0.218997
C	-1.3929105527	-0.5131985808	 0.179055226	 0.10524
C	-2.4937379818	-1.0046014242	 0.1604480647	 0.0865
C	-3.8043731153	-1.5873668615	 0.1280313122	-0.207917
C	-4.4500200088	-2.1220055383	-1.1399245504	-0.056848
C	-3.3959437404	-2.7380932677	-2.0666985948	-0.232251
C	-2.9957539277	-3.7241807314	-0.9178814127	-0.230582
C	-4.0589350189	-3.0785873445	-0.0223715151	-0.060744
H	 1.002191604	 1.3406074993	-0.7852122258	 0.287173
H	 0.6903751484	-0.7322716952	 0.2009378953	 0.113448
H	 0.0656402945	 0.5892201677	 1.1964713461	 0.114714
H	-4.5263857642	-1.110455292	 0.7870932382	 0.107536
H	-5.4311705859	-1.7694607062	-1.4355010004	 0.088384
H	-3.8378043856	-3.2560985007	-2.9202219564	 0.101652
H	-2.6196866193	-2.0560894461	-2.4232283061	 0.116239
H	-3.2293274069	-4.7618809802	-1.1646448266	 0.101809
H	-1.9660923819	-3.6664113979	-0.5548062437	 0.106947
H	-4.6859864087	-3.5943262929	 0.69555889	 0.087142
