16
gdb 66395	2.27609	1.57077	1.30821	3.3334	75.89	-0.2439	-0.0028	0.2411	1047.45	0.122705	-400.711205	-400.702682	-400.701738	-400.744217	31.938	
C	-0.0218036492	 1.6097900886	-0.031572745	-0.502661
C	 0.0766506528	 0.1146836451	-0.0310410612	 0.14357
C	 0.6920075085	-0.8830321928	-0.9919282686	-0.060671
N	 1.2660731066	-1.629185806	 0.1256624866	-0.344714
C	 0.6547472213	-0.7740805701	 1.0722279212	 0.372314
O	 0.6423129321	-0.7823300627	 2.2675947861	-0.330455
C	-0.8179343819	-0.8045288732	-0.9035921401	-0.27806
C	-1.6201705013	-1.8732893872	-0.382778657	 0.319526
C	-2.2820556741	-2.7792975989	 0.050303413	-0.424608
H	 0.9379563874	 2.0653058965	 0.2321138876	 0.138821
H	-0.3210687033	 1.990145931	-1.0129695669	 0.125291
H	-0.7636442545	 1.9451877493	 0.7002063573	 0.147334
H	 1.2568504236	-0.7054052118	-1.8980142114	 0.119863
H	 1.1922427208	-2.6384378567	 0.2008001073	 0.248591
H	-1.2760625357	-0.2463865683	-1.7190576412	 0.12268
H	-2.8735478629	-3.5697534831	 0.4416288823	 0.20318
