18
gdb 53356	3.23544	0.91636	0.84569	3.4594	82.2	-0.2533	0.0296	0.2829	1452.8654	0.147601	-401.950634	-401.941479	-401.940535	-401.986717	32.393	
C	-0.3214110231	 1.2380530533	 0.3974380282	-0.497476
C	-0.1433019754	-0.1845180216	 0.1481046021	 0.016118
C	-0.003795572	-1.3615342053	-0.0638779824	 0.142572
C	 0.1766196743	-2.7887357903	-0.3152412971	-0.089765
C	 0.953528234	-3.518564169	 0.8059325271	-0.236207
C	-0.1777464094	-3.9177051584	 1.7596686924	-0.297014
C	-1.3556214907	-4.1037609266	 0.8281901579	 0.420622
N	-2.4111359141	-4.7466418866	 1.0812751953	-0.541804
O	-1.1019829586	-3.4697048008	-0.3606462297	-0.231248
H	 0.281911006	 1.5725089739	 1.2482832499	 0.151461
H	-0.0299950692	 1.8336773672	-0.4743378164	 0.153261
H	-1.3687305047	 1.4672811976	 0.6218784737	 0.157387
H	 0.6360891625	-2.9391805709	-1.296572664	 0.116114
H	 1.4373641747	-4.4060746076	 0.3875956151	 0.116377
H	 1.716752874	-2.8839582542	 1.2565495725	 0.121499
H	 0.0106874056	-4.8212851448	 2.339068565	 0.136862
H	-0.4056231428	-3.1081462194	 2.4615046769	 0.139851
H	-3.0541585013	-4.7037061666	 0.2885036238	 0.221391
