16
gdb 17231	4.86458	1.77408	1.55182	2.9806	69.82	-0.2437	-0.0222	0.2215	834.3482	0.131256	-346.565048	-346.558539	-346.557595	-346.595711	25.251	
O	-0.23077383	 0.4213985122	-0.7619969834	-0.276573
C	 0.1537024004	 1.0815155777	 0.1782727337	 0.032062
C	 1.3857157079	 1.8766308306	 0.1901961069	 0.252313
C	 1.9343367548	 2.8177374705	 1.2618643882	-0.304157
C	 2.8279314239	 3.4100576682	 0.1394635768	-0.070701
C	 3.7840588276	 2.2370667436	-0.2332785123	-0.235078
C	 2.5437923866	 1.5444751133	-0.7914559003	-0.085598
C	 1.8171986043	 2.8365453088	-0.9326116865	-0.088525
H	-0.4396242642	 1.1346741336	 1.1202817862	 0.066704
H	 1.1704665834	 3.5278984181	 1.5913695947	 0.105393
H	 2.44299638	 2.3920074889	 2.1343746815	 0.096175
H	 3.1910878775	 4.4334683951	 0.195150414	 0.079426
H	 4.4701037555	 2.5148752248	-1.0376093508	 0.10906
H	 4.339222525	 1.7608636527	 0.5822115404	 0.095816
H	 2.4548493269	 0.6620854516	-1.4103676864	 0.113644
H	 1.2100861204	 3.2585806104	-1.7199475428	 0.110039
