17
gdb 125160	3.24955	1.63241	1.22559	2.8666	79.45	-0.2255	0.003	0.2285	1027.8709	0.137874	-380.825592	-380.818282	-380.817338	-380.857703	28.031	
C	 0.0257659276	 1.5134974358	-0.0390350861	-0.506165
C	 0.011296501	 0.0171768521	-0.0616599559	 0.08349
C	-0.2260134995	-0.8618849829	-1.0985549656	 0.192805
C	 0.0483736116	-1.3682801255	-2.5022329001	-0.206826
C	 1.404645365	-2.0649638728	-2.4652157387	-0.269693
C	 0.2065589706	-2.7501082953	-1.8640252802	-0.003138
N	-0.1609618545	-2.1252729389	-0.5851333195	 0.051039
N	 0.216546972	-2.1702783347	 0.7116292737	-0.278818
C	 0.2277669294	-0.8755280357	 1.0396099579	-0.058171
H	 0.7614302031	 1.8890817918	 0.6791103791	 0.128339
H	 0.2783060099	 1.9237713073	-1.0214188896	 0.124399
H	-0.9470890627	 1.9316180034	 0.2470009029	 0.132872
H	-0.4644655105	-1.1163763154	-3.4193046632	 0.113788
H	 1.7539491481	-2.4777797868	-3.4086542469	 0.124211
H	 2.1858394937	-1.6827581045	-1.8163785564	 0.140492
H	-0.1873171369	-3.711262828	-2.1645943103	 0.123891
H	 0.3797632121	-0.59292639	 2.073838569	 0.107485
