21
gdb 17824	4.34331	1.27222	1.09479	1.2559	79.64	-0.2194	0.0824	0.3018	1156.5337	0.189191	-329.082391	-329.074039	-329.073095	-329.115528	31.395	
C	 2.9738338217	-0.7530312699	 0.4136670164	-0.311337
N	 1.6314398472	-1.3100172689	 0.4841858628	-0.086131
C	 1.3594567018	-2.2948083813	 1.5231117094	-0.262397
C	 0.7373615216	-0.9380421519	 1.5852335383	 0.001757
C	 1.0931027642	 0.0428894339	 2.67035145	 0.0445
C	 0.802553228	 1.5573404984	 2.4430175209	-0.230729
C	 0.3273756544	 1.6514230053	 3.9171178711	-0.209683
C	 0.1636389228	 0.1077753948	 3.9196897486	-0.235043
H	 3.4967821784	-0.6807972275	 1.3801516745	 0.0987
H	 3.5784235739	-1.3865402078	-0.2436773314	 0.121713
H	 2.9303964195	 0.2476639839	-0.0286335245	 0.122371
H	 0.7824670963	-3.1663684916	 1.2233671846	 0.110379
H	 2.1499452106	-2.5030767923	 2.2451878413	 0.099748
H	-0.3001143616	-0.8494482105	 1.257668706	 0.07952
H	 2.1284975944	-0.0934323215	 2.9953509206	 0.066748
H	 1.6326029597	 2.1934169627	 2.1254585757	 0.095306
H	-0.0273674041	 1.6952979081	 1.7420202553	 0.101083
H	 1.1331987782	 1.9735763056	 4.5831514749	 0.101032
H	-0.5573253298	 2.2562297927	 4.1287603353	 0.096409
H	-0.8591812059	-0.1888576735	 3.6642775907	 0.100174
H	 0.4712448987	-0.4450146988	 4.8106557195	 0.095879
