19
gdb 100222	2.62306	1.14707	0.98252	4.2487	81.34	-0.2444	0.0275	0.272	1289.625	0.156364	-382.037729	-382.027277	-382.026333	-382.072892	37.932	
C	 0.1574046435	 1.4401028229	 0.0774608261	-0.34107
N	-0.0420711248	-0.006654975	 0.0226015679	-0.297852
C	-1.4313257843	-0.4832770417	-0.025829739	 0.076196
C	-2.2433656658	 0.0010805699	-1.2484231302	-0.415044
C	-1.3487588239	-2.0414292372	-0.0001736283	-0.381728
C	-2.6357713492	-2.718853349	 0.0205632795	 0.311486
C	-3.7004579994	-3.2751414518	 0.0385408187	-0.437129
C	-2.1084766272	-0.0268150493	 1.2070199008	 0.323063
N	-2.6458508778	 0.3474158361	 2.1585730249	-0.346286
H	 1.2310354421	 1.6368648189	 0.1400621177	 0.128965
H	-0.2420468104	 1.9980342201	-0.7836872825	 0.105326
H	-0.307284207	 1.8364692855	 0.9846662902	 0.154845
H	 0.4470920656	-0.3916708911	-0.7793524605	 0.22237
H	-1.7355627954	-0.3157656719	-2.1657404946	 0.115036
H	-3.2475945412	-0.4279933051	-1.2418259176	 0.152129
H	-2.332589479	 1.0891609576	-1.2564854432	 0.136962
H	-0.784220642	-2.3479265366	-0.89093417	 0.12921
H	-0.7474032294	-2.3276586978	 0.8683787821	 0.159582
H	-4.6404370545	-3.7686202547	 0.0675770582	 0.203941
