15
gdb 66580	3.50787	1.92825	1.58769	2.8368	69.98	-0.2248	-0.0433	0.1815	835.3978	0.113524	-416.67022	-416.664011	-416.663067	-416.700336	26.049	
O	-0.0782801777	 1.3436889104	-0.0750072235	-0.44331
C	-0.0928352067	-0.0053846027	 0.0243716413	 0.35333
C	 1.1640161604	-0.9467496964	-0.4996685874	-0.155811
C	-0.2526025133	-1.0236000536	-1.0202211436	-0.087652
N	-0.4902057158	-2.0566842392	 0.0573908038	-0.15026
C	 0.9942840622	-2.3039168114	 0.2398847978	-0.021129
C	 1.036345871	-2.4135007502	 1.7948539522	-0.182484
N	 0.2084804162	-1.2314762598	 2.1829961104	-0.245286
C	-0.4374736043	-1.0013327775	 1.1091710535	 0.074821
H	 0.435461081	 1.7006586882	 0.660756212	 0.3092
H	 2.0276124003	-0.4715416841	-0.9549782019	 0.100128
H	-0.6933039741	-1.0456710772	-2.006760796	 0.118753
H	 1.4040787836	-3.1645410581	-0.2978027677	 0.090027
H	 0.6213621471	-3.3884761251	 2.0879360974	 0.122833
H	 2.0221718901	-2.3072095433	 2.2575500518	 0.11684
