18
gdb 18370	3.08668	2.30319	1.62002	2.6983	65.96	-0.2453	0.0633	0.3085	832.1933	0.156336	-384.935219	-384.928421	-384.927477	-384.966083	27.001	
O	 0.0234516085	 1.3529297877	-0.1148392993	-0.444238
C	 0.0523566009	-0.0465516497	 0.0471878128	 0.149315
C	 0.5753991778	-0.5339659116	 1.4189058143	-0.249189
C	-0.0155750797	-1.9472011317	 1.5733534558	-0.232363
C	-1.4115279244	-1.8556370046	 0.9325490262	-0.068557
C	-2.4449976965	-0.9855910649	 1.6798203148	-0.079043
O	-2.2865678322	 0.1066638901	 0.7413609166	-0.312244
C	-1.3507552665	-0.6658465642	-0.0567932068	 0.093603
H	-0.7512646393	 1.6497959926	 0.3827202358	 0.287068
H	 0.6848709539	-0.4448239277	-0.7560870452	 0.082497
H	 1.6654285134	-0.5079486561	 1.4849865215	 0.102196
H	 0.1874501546	 0.1364067764	 2.1949275524	 0.104535
H	 0.5905041797	-2.6742924587	 1.0200427589	 0.103396
H	-0.0519409116	-2.287704174	 2.6131372067	 0.10108
H	-1.7918121052	-2.8090666895	 0.5655894546	 0.077111
H	-3.4727794186	-1.3669523484	 1.6719906031	 0.105477
H	-2.1797503818	-0.6928117128	 2.7035065239	 0.102804
H	-1.710918043	-0.787608873	-1.0825793261	 0.076554
