20
gdb 64130	2.8277	1.2802	1.13083	4.1274	78.41	-0.2726	0.023	0.2956	1175.549	0.17036	-403.182937	-403.173764	-403.17282	-403.217003	34.597	
C	-0.0213313269	 1.5046222839	 0.1090393422	-0.411706
C	-0.0199182367	-0.0179684496	-0.0456076511	 0.389993
C	-1.4372501056	-0.5865689323	 0.0188389125	-0.425124
C	 0.7554710741	-0.4841819526	-1.3026757173	-0.274065
C	 2.1580770175	-0.8044164938	-0.7707220474	-0.24043
C	 1.8294242223	-1.3243553615	 0.6405599842	-0.031699
O	 0.7353896006	-0.5508743003	 1.0851261964	-0.290093
C	 1.4924855807	-2.7688416184	 0.6236520477	 0.273897
N	 1.2269356366	-3.8935746054	 0.6027815074	-0.331052
H	 0.990746021	 1.9103303398	 0.0163490765	 0.112358
H	-0.6522386926	 1.9714580033	-0.6540114318	 0.116169
H	-0.4084509525	 1.7812453329	 1.0935804821	 0.128958
H	-2.0328838336	-0.2317183196	-0.8288755977	 0.115004
H	-1.4147599138	-1.67942318	-0.0076745607	 0.134977
H	-1.9348617862	-0.2753575745	 0.9417936455	 0.124889
H	 0.2970200274	-1.386761838	-1.718025278	 0.12206
H	 0.7632570799	 0.2777014599	-2.0850134242	 0.112056
H	 2.7070860021	-1.5261691642	-1.3777809273	 0.127971
H	 2.7645448135	 0.1005654749	-0.6737787865	 0.117983
H	 2.6556349121	-1.1860396847	 1.3457592576	 0.127854
