19
gdb 77549	3.04203	1.33004	1.09927	2.3178	77.38	-0.2504	-0.0342	0.2162	1148.0297	0.157735	-422.991497	-422.982605	-422.981661	-423.025079	33.503	
C	-0.1138278453	 1.4715081142	 0.2114829002	-0.514937
C	 0.0455122701	-0.0145743606	 0.0469628011	 0.298628
C	 0.8594700089	-0.7766296192	-1.051540375	-0.319618
C	 0.2281240436	-1.8887745551	-0.163897809	 0.199671
C	 0.6565934575	-1.0241418237	 1.0742705095	-0.301809
C	 0.3054704282	-3.3669082786	-0.2741464393	 0.026584
O	-0.6737869092	-4.0767652649	-0.2244405356	-0.266154
C	-1.08232652	-1.0579731437	-0.2044872975	 0.09826
O	-2.0235511235	-1.2214295437	 0.8200748175	-0.451289
H	 0.850544995	 1.9561217353	 0.3976359825	 0.118986
H	-0.5499520182	 1.9212991976	-0.6872428157	 0.121381
H	-0.7753655073	 1.6958745046	 1.0544763264	 0.135592
H	 0.4937936244	-0.7073763803	-2.0805244736	 0.099829
H	 1.945288966	-0.6714895652	-1.0010349873	 0.101695
H	 1.7311612134	-0.9429075075	 1.2570355851	 0.092506
H	 0.0879866701	-1.1930142843	 1.9875172012	 0.120987
H	 1.3232536435	-3.8047578931	-0.3841625354	 0.078843
H	-1.5615296571	-1.0011408558	-1.1920719965	 0.064819
H	-2.3642319501	-2.1203547961	 0.7470218413	 0.296026
