18
gdb 36660	3.07443	1.25676	1.06547	2.9837	75.32	-0.2588	0.012	0.2708	1162.8753	0.147856	-401.913067	-401.904734	-401.90379	-401.946889	30.713	
N	 0.7938378116	-0.0687743102	 1.4503490371	-0.312017
C	 0.4544684037	 0.6474279031	 0.6096156205	 0.268348
C	 0.0082369356	 1.5464978734	-0.4744903252	-0.200517
O	 1.0098744777	 2.406307579	-0.9542396802	-0.233952
C	 1.3694242314	 3.4275048187	-0.0536271547	 0.127844
C	 2.4549691411	 3.2813754802	 0.9689065601	-0.094593
C	 3.5761169873	 2.3712157755	 0.4522791442	-0.22462
C	 3.7352379819	 3.2825446731	-0.8052264726	-0.221196
C	 2.6197186974	 4.1953077228	-0.2797335728	-0.120214
H	-0.3136054341	 0.9313707464	-1.3205101441	 0.160681
H	-0.868907844	 2.1056386813	-0.1135655814	 0.139775
H	 0.5148079183	 4.023946837	 0.2698342292	 0.090198
H	 2.2897858641	 3.5491935238	 2.0059277775	 0.091666
H	 4.4586394557	 2.4000099843	 1.0937950273	 0.10744
H	 3.3010043443	 1.3280266063	 0.2820518682	 0.116383
H	 4.7039255052	 3.7848724013	-0.8312101999	 0.104579
H	 3.5481969323	 2.8201902149	-1.777342237	 0.110422
H	 2.6067048005	 5.276453449	-0.3554625762	 0.089773
