17
gdb 46606	3.17107	1.5285	1.05543	4.6848	79.05	-0.2013	-0.0016	0.1997	1098.5593	0.13956	-418.032297	-418.024979	-418.024035	-418.064108	28.316	
N	-0.0157768975	 1.3140717549	 0.1246871032	-0.567254
C	-0.0668079437	 0.0492471135	 0.0691134024	 0.306846
O	 1.0673919267	-0.7719516921	 0.0620750593	-0.268658
C	 0.6929469264	-2.152534839	-0.0402359242	-0.194945
C	-0.7999828532	-2.0976138951	-0.0532307545	 0.279625
C	-1.2154515357	-0.8260709857	 0.0161491731	 0.173677
C	-2.7135120323	-0.7704699375	-0.0902491228	-0.356666
C	-3.0742141232	-2.2861662356	 0.0700442278	-0.170747
N	-1.8087512909	-3.0221194816	-0.2265456508	-0.396073
H	 0.9540119457	 1.6299662044	 0.159085178	 0.216369
H	 1.1131977929	-2.5815112542	-0.9595235888	 0.132687
H	 1.1098511939	-2.7040278639	 0.813118999	 0.123329
H	-3.1987609819	-0.1539682893	 0.6709410388	 0.126446
H	-3.0337955835	-0.3869347703	-1.0666827715	 0.124424
H	-3.3976045659	-2.4924575605	 1.0985509585	 0.111477
H	-3.8681414319	-2.6086362436	-0.6075323165	 0.118843
H	-1.7085635658	-3.9241739844	 0.2190142789	 0.240621
