19
gdb 92961	2.80156	1.45521	1.2113	2.7925	76.11	-0.2443	0.0047	0.249	1081.8049	0.160032	-423.00752	-422.99942	-422.998476	-423.040489	31.147	
O	 0.0235206444	 1.4148496337	-0.0254567659	-0.429333
C	-0.0006687815	-0.0064001592	 0.0097862062	 0.051147
C	 0.6537522283	-0.5458234874	 1.3058686404	-0.294814
C	-0.5367052333	-0.7529590282	 2.2153065474	-0.085533
C	-1.6825074851	-0.7417545764	 1.5312768929	-0.161921
C	-1.4556794664	-0.5514101884	 0.0570848836	 0.242993
C	-2.4892035405	 0.1834961897	-0.8285569408	-0.133965
O	-2.6108845534	-0.9443864704	-1.7200338265	-0.273185
C	-1.7803063475	-1.7561441571	-0.8746255418	-0.118992
H	-0.3872603011	 1.7311018797	 0.7880610226	 0.280982
H	 0.5244935556	-0.3182041057	-0.8965210253	 0.089131
H	 1.1841388668	-1.4922739543	 1.1334995693	 0.114005
H	 1.3940635724	 0.165568544	 1.686581764	 0.112528
H	-0.4445540171	-0.9244030948	 3.2820350697	 0.100527
H	-2.6704705888	-0.9025473717	 1.949922937	 0.100849
H	-3.4405528488	 0.4137741008	-0.3291478008	 0.090699
H	-2.1155856846	 1.0797710278	-1.3328474156	 0.120349
H	-0.9297792813	-2.1911182434	-1.4156294343	 0.10053
H	-2.3460977281	-2.5644011587	-0.391818642	 0.094002
