19
gdb 107715	3.36431	1.28561	1.1126	2.3482	76.21	-0.2522	0.0718	0.324	1132.6221	0.158472	-422.94388	-422.935485	-422.934541	-422.976656	32.689	
O	-0.1131151027	 1.4120807593	 0.1224587587	-0.420657
C	-0.0679231826	-0.0027293126	-0.0166766817	-0.225038
C	-1.4759350144	-0.5100624337	-0.0436532175	 0.386556
C	-2.586590971	-0.1731443403	-1.0645306715	-0.372326
C	-3.2394473184	-1.136928411	-0.05605007	 0.400885
O	-4.5482618567	-1.5713557553	 0.0226704823	-0.47466
C	-1.9278989459	-2.0042956008	 0.1046801929	-0.171941
C	-1.9956642106	-1.9164083912	 1.6436213266	-0.278659
C	-2.4853117076	-0.5340287247	 1.1650529496	-0.105677
H	 0.7896254255	 1.7432547047	 0.103211218	 0.287593
H	 0.4450824685	-0.2942528036	-0.948066114	 0.085942
H	 0.4796223002	-0.4704363762	 0.8178899447	 0.088656
H	-2.9484018307	 0.8589280401	-1.0693324871	 0.105353
H	-2.4386630261	-0.5438103785	-2.0858823225	 0.079159
H	-4.7647072279	-2.0355229157	-0.7932601626	 0.282723
H	-1.6127577745	-2.8311263988	-0.5361020586	 0.062244
H	-2.7381593343	-2.5503945818	 2.1351018547	 0.102348
H	-1.0454964918	-1.9467672204	 2.1856175587	 0.088637
H	-2.799131849	 0.3363060306	 1.7417440493	 0.078863
