21
gdb 89803	2.90705	1.4728	1.18139	1.3525	82.93	-0.2268	0.0855	0.3123	1135.9064	0.182942	-387.076483	-387.068332	-387.067387	-387.108772	33.005	
C	 0.0988915253	 1.5455427155	-0.1013713447	-0.40181
C	 0.0743383307	 0.0324700885	 0.0413620639	 0.114581
O	 0.742321154	-0.542500693	-1.091812948	-0.30906
C	 1.1940934287	-1.8285600071	-0.7277644826	 0.468078
C	 0.550041093	-3.0316192474	-1.3672418221	-0.33963
C	 1.9496377829	-2.5850994285	-1.7680153599	-0.337865
C	 1.5158582206	-1.7793157253	 0.7384196199	-0.125055
C	 2.3029076904	-0.5733275062	 1.1909197536	-0.306055
C	 0.7958383547	-0.5544128846	 1.2491806787	-0.054098
H	 1.1257739556	 1.9211280646	-0.0857915314	 0.122091
H	-0.3658291933	 1.8470219876	-1.0444369235	 0.123815
H	-0.4552301255	 2.0122359677	 0.7190548221	 0.112757
H	-0.9725506917	-0.3152573481	 0.0641757518	 0.067089
H	 0.4415777792	-3.9422222842	-0.7865422672	 0.107108
H	-0.2498787159	-2.8408977967	-2.0739120143	 0.118084
H	 2.0619281174	-2.1108501286	-2.7365817887	 0.122244
H	 2.7967954011	-3.1853057658	-1.4541291559	 0.113375
H	 1.5583064813	-2.7050246462	 1.2994350366	 0.087416
H	 2.8322842631	-0.6509161216	 2.1339559228	 0.107938
H	 2.8043082204	 0.0218612107	 0.4348165654	 0.123477
H	 0.292077988	-0.5426186214	 2.2085983636	 0.085519
