9
gdb 23683	4.21676	1.96615	1.34092	1.1925	45.68	-0.3091	-0.0704	0.2387	762.0786	0.049929	-478.83006	-478.824692	-478.823748	-478.859952	19.19	
F	 0.0146503306	 0.092117383	 0.0034480834	-0.027179
C	-0.0113100578	 1.3989830516	 0.0105759981	 0.377909
N	-1.2072638736	 1.9637459788	 0.0299350296	-0.298718
C	-1.1549561536	 3.2958344386	 0.0361341863	 0.093262
N	-0.0485914454	 4.0395187974	 0.0248045136	-0.298718
C	 1.0598167784	 3.317919324	 0.0058367034	 0.377909
F	 2.1857924697	 3.9817391589	-0.0061682494	-0.027179
N	 1.1665346424	 1.9999103661	-0.0024702614	-0.353296
H	-2.1034744107	 3.8253256416	 0.0519095765	 0.156009
