17
gdb 6266	3.00878	1.3905	1.17965	2.8791	71.97	-0.2236	-0.0585	0.1652	1088.5735	0.138698	-363.819828	-363.81047	-363.809525	-363.854562	32.673	
C	 0.5308463649	 0.4572561194	-0.7644016329	-0.324051
N	-0.4047527691	-0.286016336	 0.067656339	-0.052351
C	 0.2056733373	-0.7235112347	 1.3130774874	-0.31502
C	-1.643007972	 0.4366850283	 0.2775371664	-0.246702
C	-2.5138238358	 0.5201042688	-0.9759334278	 0.22134
O	-3.1517369355	 1.5118702489	-1.2525328188	-0.27801
C	-2.5791587385	-0.6771067471	-1.7984159179	 0.321373
C	-2.6803169933	-1.6513764465	-2.4980557828	-0.465449
H	 1.4090603075	-0.1613255553	-0.9714115977	 0.122559
H	 0.0659513926	 0.7100021156	-1.7219679308	 0.130499
H	 0.8746435967	 1.3973403578	-0.2929394704	 0.098059
H	 0.5230732149	 0.113023134	 1.9641904591	 0.096348
H	-0.499115288	-1.3434988198	 1.8756053005	 0.120774
H	 1.0899007686	-1.3296200455	 1.0926764452	 0.121786
H	-2.2391529085	-0.1044497356	 1.0251069036	 0.127735
H	-1.5128987027	 1.4691818299	 0.6489532358	 0.105587
H	-2.766539119	-2.5124793322	-3.1151978578	 0.215523
