21
gdb 77668	2.24047	1.58621	1.32358	2.1961	77.97	-0.2259	0.0569	0.2828	1096.8278	0.18237	-424.225642	-424.216546	-424.215601	-424.258663	35.71	
C	-0.1282569328	 1.5895709441	 0.1152015454	-0.470534
C	 0.096239644	 0.1016739936	 0.0094378418	 0.22939
C	 0.6271668273	-0.4621176215	-1.3075287839	-0.263695
C	 1.2242363781	-1.8493233228	-0.9673206826	-0.229162
C	 1.682335606	-1.7412217848	 0.5041697762	-0.290851
C	 0.7231022699	-0.7368599861	 1.1107807059	 0.320271
O	 1.0640644524	-0.1143144834	 2.324526083	-0.484112
C	-0.7611682475	-0.8563590985	 0.8355605589	 0.021973
O	-1.6156058359	-0.3328760507	 1.8074128917	-0.446568
H	 0.8119579627	 2.1415758396	 0.0067155135	 0.112882
H	-0.8092945009	 1.9298606517	-0.6732069309	 0.115643
H	-0.5756634177	 1.8600468176	 1.0731418648	 0.12264
H	-0.1434783102	-0.5228569394	-2.0844482565	 0.097559
H	 1.4103181054	 0.2079321796	-1.685088299	 0.09874
H	 0.4588091996	-2.6256455588	-1.0639533181	 0.10963
H	 2.0412655629	-2.1290267292	-1.6369328947	 0.101413
H	 1.681670284	-2.7121777439	 1.0146965244	 0.090442
H	 2.6983545807	-1.3323632175	 0.5722736781	 0.106391
H	 1.227879949	-0.8080632367	 2.9744526993	 0.28886
H	-1.178003325	-1.7493961873	 0.3751078771	 0.086876
H	-1.0425515219	-0.0039237355	 2.5143681655	 0.28221
