21
gdb 119658	3.66734	1.12322	1.00275	1.0164	83.81	-0.2442	0.0983	0.3425	1287.707	0.182264	-387.013634	-387.005258	-387.004314	-387.047155	32.35	
C	 0.0598448862	 1.4786015309	-0.0715357993	-0.386284
C	 0.0406513078	-0.03742224	 0.0145204785	-0.064989
O	 0.597165543	-0.5586408238	-1.1868656513	-0.306402
C	 0.6370955215	-1.9308673295	-1.2480035857	 0.467171
C	-0.526114122	-2.9495282277	-1.2641670539	-0.3309
C	 0.7587085098	-3.7867514218	-1.4361956146	-0.049266
C	 1.4563836153	-2.7001661235	-2.327077001	-0.097652
C	 2.7354091609	-2.7091188806	-1.4644974303	-0.268463
C	 1.5928518022	-2.9061136376	-0.446775595	-0.108947
H	 1.0838024404	 1.8433179662	-0.1925128478	 0.127316
H	-0.528718816	 1.8212631618	-0.9272460163	 0.12777
H	-0.3608109521	 1.9171386949	 0.8383386427	 0.114401
H	 0.6249722619	-0.3874761681	 0.8790693891	 0.093321
H	-0.9882505953	-0.4057643706	 0.1430319226	 0.095814
H	-1.0836585252	-3.0952765236	-0.3332538118	 0.09018
H	-1.2042503869	-2.9056124075	-2.122650116	 0.093372
H	 0.8579893995	-4.8632196268	-1.5574399997	 0.077983
H	 1.342175163	-2.5897373108	-3.4065117849	 0.070851
H	 3.4172726046	-3.5534300472	-1.6065027168	 0.088115
H	 3.2907744699	-1.7690909483	-1.4048380243	 0.100048
H	 1.6389179218	-3.0352302166	 0.635795606	 0.066563
