15
gdb 48874	3.48828	1.63108	1.41181	1.936	68.31	-0.2585	-0.0436	0.2148	910.2036	0.113218	-416.767001	-416.760157	-416.759213	-416.799037	26.191	
O	-0.8353898391	 1.1128868108	-0.329957752	-0.260958
C	 0.2562890779	 0.8597177536	 0.1168518075	 0.049012
C	 1.4202616241	 1.7931338956	-0.0099156226	 0.222
C	 1.3518028635	 3.1664077716	 0.7782072132	-0.263718
C	 1.9489242965	 3.8304202517	-0.4586834566	-0.041898
C	 1.6369592747	 2.6560734206	-1.3024960654	-0.081759
N	 3.049159695	 3.0089805887	-1.112721851	-0.156551
C	 3.5675309393	 1.9785078818	-0.2612293431	 0.034352
N	 2.7303949014	 1.2186018867	 0.3223990054	-0.234663
H	 0.4707141569	-0.084232583	 0.6604425169	 0.098842
H	 0.3128792445	 3.4818426182	 0.8947997538	 0.141821
H	 1.8844469192	 3.1953333531	 1.7318575784	 0.118176
H	 1.9673232213	 4.8868170622	-0.692031277	 0.119503
H	 1.2080805613	 2.5446451107	-2.2908058327	 0.118071
H	 4.6436838235	 1.8918589178	-0.1549734449	 0.13777
