18
gdb 57988	3.5353	0.8131	0.70719	3.7605	75.58	-0.2587	0.0122	0.2709	1579.2906	0.144744	-439.081732	-439.071407	-439.070463	-439.118669	36.533	
C	-0.0559054972	 1.522651183	-0.2602776025	-0.391191
C	-0.017408506	 0.0299646338	 0.1011545683	 0.043503
O	 0.5305609424	-0.1574115339	 1.3784308738	-0.435756
C	-1.4267012409	-0.586711456	 0.0833687341	 0.403188
O	-1.948554333	-0.9475059841	 1.1294070499	-0.396775
N	-2.0283215438	-0.6945203109	-1.1260250275	-0.317447
C	-3.3934380079	-1.1867393951	-1.2768286361	-0.292468
C	-4.2006462604	-0.3177338975	-2.1264537779	 0.280912
C	-4.8475106276	 0.3908224057	-2.8492006357	-0.435189
H	 0.9500238283	 1.9383581483	-0.1629915018	 0.135572
H	-0.4019271305	 1.6910984313	-1.2856437332	 0.103329
H	-0.7181985878	 2.059725347	 0.4250333329	 0.13201
H	 0.5998519772	-0.5023066344	-0.640307649	 0.08466
H	-0.2048421936	-0.4990184425	 1.9150202946	 0.293231
H	-1.5511040396	-0.3631289659	-1.9487587661	 0.259091
H	-3.3911091241	-2.2058122845	-1.6866858539	 0.145014
H	-3.8085180892	-1.2512988886	-0.2664786761	 0.180373
H	-5.4331246963	 1.0187255642	-3.474522744	 0.207944
