20
gdb 71237	2.76126	1.85113	1.68933	0.4045	77.4	-0.2139	0.0855	0.2994	930.3488	0.173186	-403.105016	-403.097955	-403.097011	-403.135845	29.858	
C	-0.1399280298	 1.5175544467	 0.0138497656	-0.474096
C	 0.052341976	 0.0208140307	-0.0070991759	 0.395022
C	 1.1207813131	-0.6598194464	-0.9005480446	-0.225242
N	 1.3402657007	-1.696213604	 0.1618273171	-0.152985
C	 0.0598578862	-2.4964851834	 0.4372112856	-0.014742
C	-0.0437680455	-1.8323256771	 1.831956636	-0.241696
C	 0.7753067262	-0.717494146	 1.1848251946	-0.027856
C	-1.1023766921	-1.995833536	-0.4125687563	-0.097172
O	-1.2214048437	-0.5817375766	-0.2475101666	-0.304135
H	 0.806975327	 2.0238754824	 0.2228161428	 0.114927
H	-0.519914296	 1.8697309894	-0.9500683266	 0.125554
H	-0.8631755411	 1.7983941917	 0.7859615829	 0.127046
H	 0.8209640612	-1.0099076284	-1.8925407065	 0.104752
H	 2.0362899207	-0.0677130548	-0.9960254587	 0.105382
H	 0.1925346528	-3.578531279	 0.3644200618	 0.075916
H	-1.0433173827	-1.5967421203	 2.2028122082	 0.108029
H	 0.5316997119	-2.3590731786	 2.5955912779	 0.110433
H	 1.4855065873	-0.1174353196	 1.7610075007	 0.064777
H	-0.9631810899	-2.2539834304	-1.4723014645	 0.097894
H	-2.0478986123	-2.4409324803	-0.0832099335	 0.10819
