21
gdb 112525	3.50806	0.96795	0.86376	1.3071	85.8	-0.2465	0.0502	0.2968	1415.5436	0.180139	-387.039808	-387.029772	-387.028828	-387.074791	36.988	
C	 0.2435594593	 1.3001117128	 0.1928586329	-0.240578
O	-0.2380824395	 0.0306770981	-0.1864326185	-0.239258
C	 0.5061185258	-0.5639300849	-1.2121666464	 0.155172
C	 1.9007743711	-1.1630601299	-0.8825858752	-0.277861
C	 1.5213928847	-2.3883695338	-1.7755387088	-0.180893
C	 1.9353892447	-3.7098868557	-1.3554910796	 0.328554
C	 2.2739568063	-4.8064506002	-0.9942125923	-0.459987
C	 0.0069060459	-1.9696432634	-1.6399776192	-0.059425
C	-0.7782058825	-2.717541115	-0.5689301552	-0.385325
H	 1.2674658052	 1.2505333919	 0.5926316001	 0.10952
H	 0.238912831	 2.0049907052	-0.6537659493	 0.104013
H	-0.4200668357	 1.6804090397	 0.9730242059	 0.127996
H	 0.5707410672	 0.1165560826	-2.0769020928	 0.061934
H	 2.7956106557	-0.6031024711	-1.1611269463	 0.102258
H	 1.9621942296	-1.4486296847	 0.1699051744	 0.120712
H	 1.8556488422	-2.2131266209	-2.8036151561	 0.101715
H	 2.5769730658	-5.7737280295	-0.6785873283	 0.192266
H	-0.54417	-1.9899266998	-2.5841845608	 0.074144
H	-0.2533830195	-2.7312528846	 0.3898649497	 0.123446
H	-1.7481457248	-2.2396159836	-0.4087934465	 0.122834
H	-0.9428471925	-3.7545848132	-0.8750300877	 0.118765
