20
gdb 69835	3.23144	1.5276	1.2634	1.9014	78.07	-0.2295	0.0847	0.3142	1057.9668	0.172772	-403.115389	-403.107659	-403.106715	-403.14705	31.468	
C	-0.0935692506	 1.5300040003	 0.0862315781	-0.46269
C	 0.008490415	 0.0245141266	 0.049202846	 0.308803
C	-1.2210559362	-0.6983968064	-0.4900179709	-0.147386
O	-1.0167446108	-2.1044344308	-0.584983214	-0.260186
C	-0.8029283758	-2.7114054868	 0.6604582212	 0.08406
C	 0.5224345848	-3.388376414	 0.8593655333	-0.327988
C	 0.237820957	-2.0614860836	 1.5328121302	-0.047896
C	 0.7970194589	-0.7470110674	 1.0522399701	-0.078947
N	 1.3164199186	-0.5411397041	-0.315062464	-0.380395
H	 0.8292106809	 1.9629827376	 0.4797167322	 0.131134
H	-0.2535176929	 1.9386652914	-0.9186345065	 0.118594
H	-0.9273513119	 1.8555938531	 0.7189940921	 0.113572
H	-2.0956168467	-0.4704453293	 0.1401348844	 0.094478
H	-1.4451973462	-0.3647093587	-1.5091029026	 0.112841
H	-1.6995109271	-3.1418410219	 1.1036821032	 0.090137
H	 0.5585479802	-4.2746638778	 1.4830053018	 0.11619
H	 1.1989142961	-3.4056443422	 0.0118068348	 0.125745
H	 0.0734620148	-2.093902796	 2.6054272298	 0.090653
H	 1.3611344196	-0.1985441983	 1.8034269858	 0.087098
H	 1.1683653825	-1.3807341618	-0.8724977149	 0.23218
