21
gdb 74949	2.9613	1.47134	1.30289	1.4937	83.15	-0.2302	0.0248	0.255	1092.3136	0.185448	-387.12126	-387.113557	-387.112613	-387.153165	31.225	
C	-0.0646606276	 1.546459402	 0.0777939473	-0.476188
C	-0.0043674286	 0.0476605545	-0.002152797	 0.317344
C	 0.0233817802	-0.6285047644	-1.1531917707	-0.160046
C	 0.0548588196	-2.141737161	-1.1569476571	 0.035714
C	 1.4953319633	-2.6706992346	-0.9758629626	-0.209786
C	 1.6821085832	-2.5222644505	 0.558974296	-0.233846
C	 0.2443208365	-2.2139524177	 1.0688069887	 0.085256
C	 0.0029900535	-0.7143487395	 1.3084962962	-0.299803
O	-0.6089281742	-2.6431796011	 0.0051325022	-0.258197
H	 0.8004603508	 1.952291917	 0.6182101752	 0.120073
H	-0.0914793053	 2.003552601	-0.9152200431	 0.119336
H	-0.9554853511	 1.8758633488	 0.6287143641	 0.123719
H	 0.0427345051	-0.1115674128	-2.1094274885	 0.077281
H	-0.4561501588	-2.5527601552	-2.0312848152	 0.075851
H	 1.549407454	-3.7196673078	-1.2806816596	 0.100544
H	 2.2322728181	-2.1065439664	-1.5521471576	 0.099169
H	 2.0653528073	-3.4440819184	 1.002069394	 0.104284
H	 2.3792749137	-1.7203950186	 0.8141494593	 0.10163
H	-0.0215703683	-2.7958123188	 1.9548609466	 0.073005
H	 0.7770729352	-0.3115740564	 1.9765749779	 0.097681
H	-0.9537625467	-0.5637537902	 1.828376814	 0.106978
