20
gdb 13870	3.96942	1.28319	1.22162	1.3313	77.49	-0.2275	0.0292	0.2567	1108.1541	0.177189	-349.02239	-349.01376	-349.012816	-349.055677	32.093	
C	-0.0020591903	 1.5589007115	 0.049533154	-0.408216
C	-0.0440050405	 0.0245077747	 0.0307253103	 0.012588
O	 0.562362184	-0.4873801941	-1.1586451	-0.439443
C	 0.6930728463	-0.5801753661	 1.1910386396	 0.389519
C	 0.1469067519	-1.1879886085	 2.2448401913	-0.195758
C	 1.1783035127	-1.7004394086	 3.2204846064	-0.244412
C	 2.4857096746	-1.0240702252	 2.7307476232	-0.210379
C	 2.2078221902	-0.5984393017	 1.2671729554	-0.292702
H	 1.029434113	 1.9203317337	 0.0071249481	 0.126504
H	-0.5432944489	 1.968006671	-0.8125135358	 0.10216
H	-0.4734796859	 1.9485491429	 0.9566289982	 0.121799
H	-1.097899547	-0.2930714498	 0.0836877895	 0.064445
H	 0.1765530052	-0.0218974644	-1.9076212422	 0.280018
H	-0.91836616	-1.3467195057	 2.3808471914	 0.08077
H	 0.9442616525	-1.4553915855	 4.2630088445	 0.098168
H	 1.2403117235	-2.7973832185	 3.1725401849	 0.104461
H	 2.680044702	-0.1335050067	 3.337296427	 0.100676
H	 3.3599674459	-1.6732899988	 2.8246374036	 0.09472
H	 2.6041267329	-1.3184076942	 0.5402066132	 0.118556
H	 2.6655236879	 0.3651789342	 1.0175208376	 0.096527
