18
gdb 77037	2.84972	1.10541	1.02703	1.502	80.07	-0.2353	-0.0422	0.193	1240.5126	0.144516	-401.886195	-401.876576	-401.875632	-401.920857	34.72	
C	-1.8789363595	 0.6414618049	-0.679830886	-0.338522
N	-0.8213427009	-0.3528013349	-0.5042380963	-0.088164
C	 0.3690227219	-0.337994882	-1.3033693266	 0.00424
C	 0.6646426161	 0.7032756714	-2.378273307	-0.401257
C	-0.0567088797	 0.4165488905	-3.6144345398	 0.303771
C	-0.6566306267	 0.1612591069	-4.6240521333	-0.442084
C	 0.4420481238	-0.0182639659	 0.1831253903	-0.136825
C	 0.787652743	 1.3447420288	 0.6587634152	 0.151604
O	 0.4481185284	 2.3955570082	 0.1575356396	-0.276169
H	-1.5324140995	 1.6753353064	-0.7663389175	 0.149066
H	-2.4389827509	 0.3711943466	-1.5789851319	 0.140539
H	-2.5518437321	 0.5734887598	 0.1798521373	 0.125931
H	 0.7198400496	-1.3347269495	-1.5707717993	 0.112849
H	 0.4268181829	 1.7069479144	-2.0173155559	 0.172025
H	 1.7444653094	 0.6931535383	-2.5751556184	 0.136266
H	-1.1844291685	-0.0517510759	-5.5204273049	 0.198299
H	 0.7958068398	-0.8025470018	 0.8500145934	 0.101056
H	 1.4155115029	 1.3395794437	 1.5772312812	 0.087375
