19
gdb 86238	2.49988	1.19507	0.86435	2.8118	77.47	-0.253	0.0546	0.3076	1324.2519	0.157893	-422.996026	-422.986512	-422.985567	-423.031173	35.574	
O	-0.0832455147	 1.4779957685	 0.0300924649	-0.434499
C	 0.0449572948	 0.065739998	 0.0504830362	 0.132321
C	 0.6191932759	-0.5128448326	 1.3526974629	-0.29368
C	 0.1112248836	-1.9601049271	 1.3512776322	 0.118202
O	 0.1094329795	-2.5998210992	 2.6122768032	-0.434269
C	-1.3551620812	-1.8232175586	 0.8603104738	-0.154931
C	-1.3597424967	-0.5657538224	-0.0661441776	-0.239568
C	-1.8789544419	-3.0308487007	 0.2407808631	 0.311888
C	-2.301139633	-4.0224300199	-0.292334856	-0.46129
H	 0.8002430642	 1.8596585587	 0.03192722	 0.281409
H	 0.6655655382	-0.266841097	-0.7964131616	 0.067991
H	 1.7100836704	-0.4378159832	 1.4204128609	 0.082039
H	 0.1826571861	 0.0183750329	 2.2066416742	 0.114151
H	 0.6762470276	-2.554177015	 0.6171342861	 0.077754
H	 1.0186026683	-2.8066996586	 2.8486053083	 0.284395
H	-1.9428184566	-1.6106316966	 1.7614719244	 0.118188
H	-2.0954691865	 0.1654236192	 0.2771812672	 0.123252
H	-1.6070680519	-0.8238732723	-1.0967373768	 0.115511
H	-2.680622826	-4.901005694	-0.7517623656	 0.191138
