17
gdb 75929	2.6233	1.58739	1.12554	2.6135	67.85	-0.2563	-0.0376	0.2187	1067.2744	0.135102	-458.967508	-458.959406	-458.958461	-459.000351	30.813	
O	 0.4209600924	 0.835035005	-0.8699152125	-0.435217
C	 0.029884024	-0.2987619679	-0.1576610194	-0.028643
C	 0.4800457593	-0.2622807801	 1.3014202909	 0.368015
O	 1.3849240276	 0.4362352836	 1.6861855092	-0.326972
C	-0.4661397783	-1.1144637746	 2.1415189514	-0.332131
C	-1.6150206211	-1.4970719538	 1.1763630091	-0.317242
C	-1.4678609471	-0.5324595428	-0.0009801977	 0.420173
C	-2.4580169335	 0.481044252	-0.3770663002	-0.245004
O	-2.2721588455	-0.7196735228	-1.1483815925	-0.288584
H	 1.1015722243	 1.2619544766	-0.3267371875	 0.294585
H	 0.4550287646	-1.2175942349	-0.6080221873	 0.104387
H	 0.0588122851	-1.9775620188	 2.5617398889	 0.143293
H	-0.8021220907	-0.5089437458	 2.9892708851	 0.14553
H	-1.4903286542	-2.5206635872	 0.8070919706	 0.125434
H	-2.6020376502	-1.4371252166	 1.6383814126	 0.121131
H	-3.4000106314	 0.5414927307	 0.1661449592	 0.112845
H	-2.1203897954	 1.3938879374	-0.8607801799	 0.1384
