20
gdb 76782	2.12894	1.74981	1.13141	2.6561	80.82	-0.2105	-0.0198	0.1907	1144.012	0.16886	-403.127744	-403.118382	-403.117438	-403.161716	34.965	
C	-0.4743235611	 1.3772891613	 0.1655013513	-0.406739
C	-0.0110165005	-0.0645792249	-0.0420395911	-0.078748
N	 0.868082299	-0.3779770656	-1.2153369572	-0.151034
C	 0.9532066936	 0.5375537	-2.3333881513	-0.337579
C	 2.0385390283	-0.5909718905	-0.3576044091	 0.247682
C	 3.2004150543	-1.5160299704	-0.5825351966	-0.311301
C	 3.4404801261	-0.0317789281	-0.4956876045	-0.324166
C	 1.1739104796	-0.4691330354	 0.8605193995	 0.327154
O	 1.3405109136	-0.594856265	 2.0397929875	-0.320132
H	 0.3640332052	 2.0801498941	 0.1699992455	 0.125503
H	-1.1787033847	 1.6849859946	-0.6133509083	 0.124234
H	-0.9826069773	 1.4531891532	 1.1312681031	 0.13857
H	-0.8693846653	-0.7452708088	 0.0136966506	 0.102137
H	 1.3045020838	 1.5510045946	-2.0740783875	 0.100726
H	 1.6369569402	 0.1296865718	-3.0858489663	 0.122532
H	-0.0292118163	 0.6274871131	-2.8069204994	 0.125379
H	 3.5002677304	-2.1426895477	 0.2509199981	 0.132983
H	 3.267722985	-1.9834899244	-1.5594494635	 0.125009
H	 3.6727991536	 0.4970074018	-1.4139262063	 0.124119
H	 3.9055612025	 0.3746561662	 0.3963565356	 0.133671
