18
gdb 97219	2.5904	1.31623	1.00584	1.9426	75.54	-0.2498	-0.0333	0.2164	1218.2306	0.147048	-439.113364	-439.104232	-439.103288	-439.148653	31.604	
C	-0.1007899759	 1.5329807027	-0.0255880619	-0.334983
N	 0.0240596043	 0.0833032248	-0.0293143897	-0.323996
C	-1.0002820851	-0.6319030045	 0.1257916611	 0.420081
O	-2.2753654139	-0.1829867043	 0.3173057232	-0.246149
C	-3.2060489082	-1.2815185223	 0.3108718887	-0.089434
C	-2.3795300855	-2.537849725	 0.6229983407	-0.249477
C	-0.9955374052	-2.1558567998	 0.0938391186	-0.205366
C	-0.7318406912	-2.6096487102	-1.3400776351	 0.146449
O	-1.488948432	-3.2831973372	-1.988879622	-0.237781
H	 0.3138267113	 1.9304486729	 0.908783241	 0.127501
H	 0.5053390806	 1.9417241365	-0.8404944864	 0.125251
H	-1.1297637345	 1.8948936223	-0.1285251703	 0.124722
H	-3.9782717124	-1.0642313452	 1.0515461046	 0.123116
H	-3.6708809448	-1.3408040575	-0.679685738	 0.128959
H	-2.341919532	-2.7193112233	 1.6997268756	 0.115649
H	-2.7768165276	-3.4225523486	 0.1233125152	 0.136862
H	-0.1610737121	-2.5176677202	 0.7021213662	 0.127053
H	 0.2329595242	-2.246051691	-1.7493633514	 0.111544
