15
gdb 31307	2.34164	1.54553	0.93659	2.6702	81.28	-0.1981	-0.0125	0.1856	1194.0551	0.111288	-420.607256	-420.598841	-420.597896	-420.640604	30.798	
C	-0.0213842572	 1.4450668106	 0.0215777488	-0.252904
O	-0.0009230878	 0.0276499656	 0.0007620395	-0.255876
C	 0.6025003899	-0.5482498962	-1.0560110274	 0.198976
C	 0.7045398267	-1.9132776666	-1.218718108	 0.107564
O	 1.3745873406	-2.1653340591	-2.3976725198	-0.173737
C	 1.6796051124	-0.9775496811	-2.9504747946	-0.00948
C	 1.2378538037	 0.0586585631	-2.1841364346	-0.311875
C	 0.2701293241	-2.9904122653	-0.4389611836	 0.277117
C	-0.1090958473	-3.9108132147	 0.2413514117	-0.425864
H	 0.9943420898	 1.8603255495	 0.0387091518	 0.126158
H	-0.5615064107	 1.8508320909	-0.8433304801	 0.126148
H	-0.5419868653	 1.7298955156	 0.9367681111	 0.142105
H	 2.2110583727	-1.0172877423	-3.8874068097	 0.140306
H	 1.351279293	 1.1084878037	-2.397299684	 0.122106
H	-0.4446341144	-4.7183539038	 0.8429525288	 0.189254
