19
gdb 73531	2.5591	2.13844	1.3866	0.8942	81.38	-0.2241	-0.0151	0.2089	964.295	0.159948	-385.814749	-385.807442	-385.806498	-385.845846	30.348	
C	 0.1259045629	 1.4160312529	 0.0113814286	-0.449596
C	-0.0491312505	-0.0855282167	-0.0614363896	 0.432689
O	 0.9378107949	-0.637561091	-0.9067729586	-0.309596
C	 0.3701188748	-1.5470074374	-1.8917410396	-0.121141
C	-0.2820956614	-2.636249386	-1.0838759901	-0.15024
C	-1.1186220553	-2.1595813843	-0.1575752553	 0.156551
C	-0.88721341	-2.2440070546	 1.342127863	-0.289876
C	-0.67613034	-0.7043029583	 1.2353415922	-0.109426
C	-1.4166668853	-0.6618049307	-0.1047729116	-0.227947
H	 1.115324842	 1.6654238616	 0.4066046137	 0.130151
H	 0.0436535715	 1.8536630273	-0.9884823718	 0.12088
H	-0.6306697927	 1.8736000427	 0.6553530771	 0.113933
H	-0.3254562029	-0.9982664565	-2.5383624159	 0.107339
H	 1.2114163387	-1.8974099097	-2.4911551286	 0.113267
H	 0.2426532407	-3.5768681242	-0.9396036973	 0.096671
H	-1.7821562579	-2.4291017768	 1.9472387371	 0.10802
H	-0.0648602596	-2.878245205	 1.6865436872	 0.103372
H	-0.8236186809	-0.0398224681	 2.0818024206	 0.085571
H	-2.3330837691	-0.1564745753	-0.3882196912	 0.089378
