23
gdb 73849	2.28581	1.4816	0.96434	0.4604	97.35	-0.2005	-0.0051	0.1954	1309.609	0.206568	-351.182179	-351.172666	-351.171722	-351.21637	36.276	
C	 0.6537493438	 1.5170181317	 0.1011720822	-0.48923
C	 0.2093947551	 0.0854404075	-0.058997627	 0.199251
C	-0.1711725268	-0.4794137584	-1.2242189595	 0.20393
C	-0.2236782115	 0.2597063111	-2.5467305877	-0.491534
C	-0.6311595799	-1.8728319275	-1.3615375208	-0.09286
C	-0.4371672963	-2.9745715478	-0.6207412918	-0.075148
C	 0.3619758594	-3.18274709	 0.6320303966	-0.249867
C	 1.1235560926	-1.9701023611	 1.167693628	-0.196741
C	 0.2438623427	-0.7038645563	 1.2357843364	-0.292033
H	 0.0411756782	 2.0224016982	 0.8598547394	 0.12349
H	 1.6878597401	 1.5592677926	 0.4706860049	 0.122762
H	 0.6044796252	 2.1090758188	-0.8121646896	 0.118827
H	 0.1016632494	 1.2974355877	-2.4867874798	 0.118109
H	 0.4050577572	-0.2416189373	-3.2930119525	 0.124753
H	-1.2449129177	 0.2541057733	-2.9491743818	 0.122341
H	-1.2340233884	-2.0254810367	-2.2572997137	 0.072438
H	-0.9247493168	-3.8807814552	-0.9788031027	 0.081107
H	-0.3222054119	-3.5556917435	 1.4098208908	 0.106109
H	 1.0651306771	-4.0118790182	 0.4633734192	 0.103852
H	 1.5088395606	-2.2137050877	 2.1645154149	 0.089635
H	 1.99570953	-1.764575543	 0.5374727214	 0.1017
H	 0.6079567041	-0.0506094086	 2.0351845112	 0.090611
H	-0.7762959062	-0.9966705095	 1.5221460418	 0.108498
