21
gdb 2102	4.18988	2.17139	1.5773	0.083	74.12	-0.2876	0.0864	0.374	861.7683	0.197495	-275.020322	-275.013135	-275.012191	-275.050946	28.642	
C	-0.0305870097	 1.564748987	 0.0107416915	-0.402984
C	 0.0202163939	 0.0342021416	 0.0020363117	 0.060797
C	 0.6980414192	-0.5056601893	-1.2694005765	-0.174716
C	 0.7686783695	-2.0395510531	-1.283105527	-0.196145
C	 1.4630495158	-2.5812094767	-0.0257868533	-0.175738
C	 0.7928691476	-2.0531569469	 1.2503064205	-0.196145
C	 0.7221404239	-0.5192146718	 1.2544269589	-0.174716
H	 0.9799713329	 1.9906701876	 0.0033813226	 0.109902
H	-0.559191791	 1.9516103794	-0.8673154938	 0.1069
H	-0.5422918081	 1.9421029658	 0.9028354852	 0.1069
H	-1.0152778544	-0.3404868927	 0.0099114199	 0.064547
H	 0.1673643102	-0.1422094772	-2.1578969731	 0.084416
H	 1.7169531275	-0.0948341244	-1.3287303736	 0.086642
H	-0.2506713835	-2.4472761049	-1.3360231052	 0.089795
H	 1.2874596124	-2.3861747255	-2.1843005721	 0.086747
H	 1.4611333679	-3.677223795	-0.0316549275	 0.086488
H	 2.5178453367	-2.272040428	-0.0341984081	 0.089707
H	-0.2253259335	-2.4615316719	 1.318297199	 0.089795
H	 1.3287288063	-2.409385713	 2.1376564019	 0.086747
H	 1.7420413907	-0.1089449505	 1.2986984246	 0.086642
H	 0.2085633255	-0.1653814005	 2.1567467869	 0.084416
