18
gdb 14990	4.18685	1.60968	1.30883	0.5684	70.02	-0.2511	0.0145	0.2657	975.6667	0.154556	-384.941094	-384.933331	-384.932387	-384.973315	28.754	
C	 0.2899860883	 1.4141587368	-0.0535631751	-0.239068
O	 0.3902898374	 0.001453676	-0.013264055	-0.245948
C	 0.5157629517	-0.5891502301	-1.2867769156	 0.184039
O	 1.7330627049	-0.2558482347	-1.9152992692	-0.25752
C	 2.8403172762	-1.0123477433	-1.4291883812	-0.091989
C	 2.6706237803	-2.4898754054	-1.7756307707	-0.25393
C	 1.2924519796	-2.9442096383	-1.3758100609	-0.06334
C	 0.3206129377	-2.0729017466	-1.1212850792	-0.084644
H	 1.1798944358	 1.8705875759	-0.502214598	 0.123222
H	-0.5941112283	 1.7352482627	-0.6255961049	 0.103752
H	 0.1875478126	 1.7565948085	 0.9785222004	 0.124117
H	-0.2531784774	-0.1726687436	-1.9581786224	 0.073905
H	 3.7291703248	-0.5827576484	-1.8978827475	 0.102539
H	 2.9259647533	-0.8901606885	-0.3409884885	 0.107849
H	 2.8289931606	-2.6554431286	-2.8504679277	 0.116704
H	 3.4340037811	-3.0821276102	-1.2560729346	 0.10695
H	 1.1091338483	-4.0122686387	-1.2922751632	 0.093478
H	-0.664713317	-2.3880544834	-0.7937983967	 0.099884
