21
gdb 88984	2.93584	1.13777	1.04403	3.1204	78.43	-0.2217	0.0861	0.3078	1266.4044	0.181761	-424.189298	-424.180071	-424.179127	-424.223495	35.166	
C	 0.0213764402	 1.641372635	 0.3263657522	-0.425671
C	 0.7016934566	 0.3034624504	 0.1973008047	 0.070438
O	 2.0046346062	 0.1687616718	 0.7945224982	-0.266588
C	 0.9227892746	-0.6448421782	 1.3051895814	 0.05171
C	 0.4731144985	-0.4264594211	 2.7326742876	-0.267096
C	 1.5150132192	-0.7378926612	 3.807943516	-0.068167
C	 2.9458340579	-1.1635554854	 3.4860920195	-0.3478
C	 2.6694460159	 0.2154950212	 4.0180763224	 0.153436
O	 2.8084063236	 1.3609434198	 3.2377706696	-0.440842
H	 0.1708198223	 2.0761997247	 1.3161457553	 0.145313
H	 0.4268433015	 2.3388623855	-0.413647544	 0.133753
H	-1.0533813265	 1.5430839978	 0.1392060098	 0.127077
H	 0.6584144222	-0.1284240425	-0.8041635935	 0.097484
H	 1.0398511832	-1.6941520927	 1.0312940864	 0.100761
H	 0.127606576	 0.6038114618	 2.8647536636	 0.116764
H	-0.4009362477	-1.0710095153	 2.8845171791	 0.107431
H	 1.0894302371	-1.1706605513	 4.7088387224	 0.083447
H	 3.4196071414	-1.8947332658	 4.1328009293	 0.10569
H	 3.2343500069	-1.2411270691	 2.4435840064	 0.130239
H	 2.9578913804	 0.4317746674	 5.0420044865	 0.094894
H	 2.6812841108	 1.1203903574	 2.3062971671	 0.297727
