16
gdb 98956	3.52972	0.95963	0.75806	1.2981	71.29	-0.2278	-0.0987	0.1292	1431.3077	0.123099	-471.249978	-471.240216	-471.239272	-471.286073	33.249	
C	 0.2436141642	 1.5627101693	 0.1135922115	-0.309032
N	 0.1448482701	 0.1241338329	-0.0070239497	-0.315808
C	 0.44005728	-0.6796022567	 1.0411947351	 0.476586
N	 0.8148439425	-0.2241567342	 2.1769493224	-0.57352
N	 0.2972584633	-2.0722239137	 0.7701900668	-0.400757
C	-0.0857216159	-2.6948747865	-0.3716530245	 0.327232
O	-0.3976528175	-2.1876065424	-1.4376243275	-0.366868
C	-0.1036145457	-4.2209960935	-0.2245607147	 0.112896
O	 0.1912810363	-4.7884872137	 0.7943774292	-0.240918
H	 1.2634098233	 1.8709959426	 0.3680800569	 0.139911
H	-0.0381482029	 2.0101450659	-0.8414063039	 0.122567
H	-0.4202972009	 1.9418157873	 0.8979431497	 0.140081
H	-0.1420926153	-0.3114696503	-0.8702895881	 0.277424
H	 0.9940167493	-0.9659928204	 2.8481045286	 0.208844
H	 0.5100935425	-2.7011738376	 1.5347097788	 0.271255
H	-0.4153605932	-4.7369329692	-1.1525060807	 0.130106
