14
gdb 49369	2.53456	1.36936	0.96794	3.2969	70.25	-0.2767	-0.0463	0.2304	1153.6042	0.100925	-432.891836	-432.883633	-432.882688	-432.925425	28.73	
N	-0.0641076468	 1.2027227101	 0.8941598375	-0.52415
C	-0.0750537541	 0.1146141743	 0.2731262584	 0.415279
C	-1.1719874707	-0.7229114974	-0.3764033901	-0.342055
C	-0.0473584373	-1.764230633	-0.723785513	-0.139117
C	 0.1810285237	-2.0320291702	-2.1416881706	 0.29042
N	 0.3609657578	-2.2545682321	-3.2609322981	-0.302865
N	 0.9137865956	-0.8369701204	-0.0972804278	-0.097029
C	 2.2692487936	-0.8917433475	 0.1170018262	 0.145244
O	 2.880117906	-0.0317594627	 0.7057366882	-0.288689
H	 0.8815325221	 1.4504435414	 1.1889260141	 0.258934
H	-1.9375235948	-1.0964341182	 0.3036916044	 0.156863
H	-1.6389783855	-0.2608489293	-1.2463018673	 0.166415
H	-0.1425616778	-2.7126201866	-0.1868842243	 0.150847
H	 2.7311328982	-1.8018870683	-0.3095023275	 0.109903
