24
gdb 118242	5.14759	0.62861	0.58729	2.0372	87.35	-0.2291	0.0681	0.2972	1985.6715	0.215544	-405.518705	-405.507897	-405.506953	-405.555336	39.208	
C	-0.0805399133	 1.4957663183	-0.1489670207	-0.382358
C	 0.0675412411	-0.0265912926	-0.0954333757	-0.161504
C	 0.6093712358	-0.5312620705	 1.2462211586	-0.189139
C	 0.8259877462	-2.0492032458	 1.2855206416	 0.118541
O	 1.7079481873	-2.4814359079	 0.2494508446	-0.426058
C	 1.3053296832	-2.5236303384	 2.6617491709	-0.159449
N	 1.2601609188	-3.9731423604	 2.7737887484	-0.056941
C	 2.4427605504	-4.7073086435	 2.3467682068	-0.197777
C	 2.111781519	-4.5795301412	 3.7922945067	-0.228675
H	 0.8830325922	 1.9946191369	 0.0060731384	 0.110107
H	-0.4713439931	 1.8237554316	-1.1172710778	 0.112616
H	-0.7657471012	 1.8581450198	 0.6258427061	 0.111956
H	-0.9050009368	-0.4985898961	-0.2870172372	 0.096334
H	 0.731367657	-0.369844764	-0.8959725434	 0.106806
H	 1.5642441193	-0.0296405339	 1.4710963679	 0.080172
H	-0.0773935728	-0.2474044987	 2.054607773	 0.095249
H	-0.1196432465	-2.5595009428	 1.067310273	 0.09878
H	 2.5391997127	-2.00569804	 0.3610668091	 0.273359
H	 2.3208445877	-2.1173867061	 2.847794506	 0.062436
H	 0.6485882424	-2.1065274868	 3.4350470003	 0.101138
H	 2.2569388329	-5.6338382988	 1.8117318256	 0.117132
H	 3.2918181294	-4.1364514389	 1.9769519554	 0.098768
H	 2.7412835149	-3.9206903076	 4.389540724	 0.10381
H	 1.6752199334	-5.4095232024	 4.3405926883	 0.114696
