13
gdb 42241	4.19658	0.98033	0.87023	2.2113	65.34	-0.2767	-0.1044	0.1723	1243.1428	0.088103	-452.777107	-452.768805	-452.767861	-452.811285	28.694	
O	 0.0737543661	-0.0894706251	-0.0214430507	-0.257123
C	 0.0010233517	 1.111076663	 0.0147781446	 0.288162
C	 1.2167526946	 1.952056092	 0.0295015901	 0.226994
N	 2.1515042016	 2.6326179275	 0.0400118019	-0.286653
C	-1.2933450162	 1.8963740305	 0.0511928175	-0.080269
C	-1.732801238	 2.5037426743	-1.327415427	-0.397134
C	-2.9217562077	 1.5113854769	-1.226916072	 0.437086
O	-3.8458413481	 1.2066441131	-1.9214955396	-0.328119
N	-2.4981681694	 1.0862396641	 0.0187920205	-0.312444
H	-1.2448244953	 2.6285692385	 0.8666975804	 0.129101
H	-1.9992659004	 3.5603319716	-1.3043318102	 0.155648
H	-1.0613105144	 2.3064498888	-2.1648051878	 0.155645
H	-2.7318446345	 0.2569869247	 0.5457066223	 0.269105
