25
gdb 122002	1.84922	0.91622	0.64634	2.2172	86.91	-0.258	0.0743	0.3322	1832.8811	0.226203	-426.628121	-426.616376	-426.615432	-426.666678	41.518	
C	-0.1721363207	 1.5388167803	 0.0222442466	-0.381275
C	-0.0357333817	 0.0149874598	-0.0257108861	-0.171853
C	 0.6649459298	-0.562599839	 1.2080945989	-0.169927
C	 0.7492046651	-2.0898518161	 1.215252342	 0.143264
C	 1.6323650069	-2.6165481003	 2.348832851	-0.40385
O	-0.5859269626	-2.5818594608	 1.3360234216	-0.276377
C	-0.8043347666	-3.8960665066	 0.8580831402	-0.07469
C	-2.302265458	-4.149555431	 0.9484963363	-0.060921
O	-3.0365211031	-3.2018790203	 0.2000459176	-0.422944
H	 0.808068365	 2.024199689	 0.0915321972	 0.112011
H	-0.6704160442	 1.9231233882	-0.8731757272	 0.11295
H	-0.7583447733	 1.8567203033	 0.8916917043	 0.114626
H	-1.0256128514	-0.4441936703	-0.1225073027	 0.10441
H	 0.5227258496	-0.2750249017	-0.9257964998	 0.092587
H	 1.6821260004	-0.1567784005	 1.2781162693	 0.091677
H	 0.139221183	-0.2474558556	 2.1193234884	 0.100438
H	 1.1619421963	-2.4284661925	 0.2496584722	 0.064722
H	 1.6646520726	-3.7098169369	 2.3583170136	 0.116507
H	 2.6591934102	-2.2548955911	 2.2347869835	 0.115307
H	 1.2508646061	-2.2772190073	 3.3171516496	 0.122836
H	-0.4706433773	-3.9792045704	-0.1885418997	 0.094212
H	-0.2592213375	-4.6453775784	 1.4531501632	 0.086344
H	-2.5338958114	-5.1382540675	 0.5386794453	 0.106125
H	-2.6023686803	-4.1448458343	 2.0087422195	 0.091272
H	-2.7057318067	-2.3407569401	 0.4810326553	 0.292551
