20
gdb 12704	3.38524	1.75523	1.35505	1.7691	70.87	-0.2373	0.0636	0.3009	983.7259	0.17672	-386.151581	-386.142858	-386.141914	-386.184426	32.6	
C	-0.6068093605	 1.4050814744	 0.0188912519	-0.415809
C	 0.162087861	 0.0873681769	-0.0032765288	-0.000142
C	 1.2533592243	-0.0103673772	-1.0805400351	-0.067842
O	 2.1693044482	-1.0107107584	-0.6395140876	-0.283974
C	 1.9183039167	-1.337285065	 0.7307685088	 0.150737
C	 3.244261956	-1.483836533	 1.4622583955	-0.429734
C	 0.9734214547	-0.2389876983	 1.2600740784	 0.070063
O	 1.6535384927	 0.9429446445	 1.6580102257	-0.430985
H	 0.0651062842	 2.2419209425	 0.221147296	 0.138975
H	-1.1015812875	 1.5813016939	-0.9420633089	 0.111128
H	-1.3800829525	 1.3982736001	 0.7936941609	 0.112748
H	-0.5400212949	-0.743122032	-0.1502325212	 0.077818
H	 0.8558005477	-0.2975047896	-2.0607159387	 0.095827
H	 1.7759898786	 0.9508317206	-1.188722278	 0.09888
H	 1.375593706	-2.2969481209	 0.7765124907	 0.063175
H	 3.7978755892	-0.5411608316	 1.4436505372	 0.125089
H	 3.0870653113	-1.7937436877	 2.5020306365	 0.105243
H	 3.8584854189	-2.2444652573	 0.9736613071	 0.13202
H	 0.341072977	-0.6180027526	 2.0760657587	 0.059117
H	 2.1990350087	 0.7360006908	 2.4224279108	 0.287664
