17
gdb 53542	2.64516	0.9595	0.81006	4.7034	81.44	-0.2609	0.0189	0.2798	1471.7727	0.134515	-380.830507	-380.820745	-380.819801	-380.867013	33.679	
C	 0.1224014455	 1.4412807412	 0.4165056371	-0.497158
C	 0.0578062751	 0.0203716775	 0.1086646557	 0.087935
C	 0.0012398086	-1.1526075396	-0.1542105813	 0.069333
C	-0.0988200167	-2.5753626605	-0.4601617585	-0.449591
C	-1.4551523974	-3.1755584531	-0.0781940786	 0.153571
C	-1.5029779042	-4.5622714119	 0.4779151805	-0.269818
N	-1.7727900954	-3.410228257	 1.3407620072	-0.31479
C	-2.569976174	-2.704909848	-0.8777703888	 0.296325
N	-3.4387610394	-2.3464945672	-1.5502806577	-0.336144
H	 0.7714917011	 1.6342642536	 1.2774715209	 0.149123
H	 0.5139748092	 2.0128007032	-0.4318185669	 0.153461
H	-0.8714909119	 1.8361176949	 0.6527573923	 0.158945
H	 0.0780163341	-2.7487334935	-1.5291682684	 0.151189
H	 0.6792736146	-3.1353728515	 0.0748527006	 0.128649
H	-2.3626556441	-5.1926189264	 0.2747069802	 0.146571
H	-0.5547773221	-5.0871214796	 0.5633161162	 0.125933
H	-0.9602435131	-3.171453282	 1.9051276595	 0.246467
