17
gdb 76593	3.38533	0.76025	0.72807	3.917	84.54	-0.2544	-0.0569	0.1975	1589.0179	0.133004	-421.789058	-421.779138	-421.778194	-421.82497	34.23	
C	-0.1162770098	 1.5552579312	-0.1611854192	-0.40688
C	 0.0226022232	 0.0556518408	-0.0483963398	-0.041888
C	 1.343166739	-0.6145420649	-0.204148955	 0.097402
O	 2.4377382769	 0.200632872	-0.4456233832	-0.404857
C	 0.6776373499	-0.5959155648	 1.1885655928	-0.290302
C	 1.2523912132	 0.1979210129	 2.2163220809	 0.131763
C	 1.7572590253	 0.8463498163	 3.1066145686	 0.019894
C	 2.3560401368	 1.6499710556	 4.1333186113	 0.013426
O	 2.3952556392	 1.3575222076	 5.3085527999	-0.23811
H	 0.7860380081	 2.0624198013	 0.1815281704	 0.144813
H	-0.2874644041	 1.83890476	-1.2045397095	 0.126396
H	-0.9639808361	 1.91195677	 0.4315082819	 0.125449
H	-0.8275124841	-0.5122837046	-0.4157573958	 0.104169
H	 1.3737211721	-1.5917321361	-0.6859444171	 0.102667
H	 3.1785364141	-0.1099192656	 0.0865387836	 0.298615
H	 0.2429408435	-1.5353677174	 1.5169390536	 0.123797
H	 2.7994824027	 2.5968391056	 3.7607738067	 0.093646
