17
gdb 127048	3.19627	1.10623	0.8312	2.9185	72.11	-0.2087	0.0112	0.2199	1359.7181	0.135779	-455.129152	-455.120175	-455.119231	-455.163394	32.328	
C	 0.0480017934	 1.5060154775	-0.0939307907	-0.394332
C	 0.0152832448	-0.0081839786	-0.0345063149	-0.045977
O	 0.7109412953	-0.5055090174	-1.1921407828	-0.284099
C	 0.7844663189	-1.8364072606	-1.3071585415	 0.453921
N	 0.2719458347	-2.6873756517	-0.4519252176	-0.247736
O	 0.5735654599	-3.9430596007	-0.9693825191	-0.196707
C	 1.2663556816	-3.7900297016	-2.1247979067	 0.018176
C	 1.4391523369	-2.4739186415	-2.4086981348	 0.032093
N	 2.1280500861	-1.8125466027	-3.4296681226	-0.616185
H	 1.0779319383	 1.8737429573	-0.0885441793	 0.131438
H	-0.4452715095	 1.8716459891	-0.9990890969	 0.127824
H	-0.4718833442	 1.9218937739	 0.7739462652	 0.12568
H	 0.5069042644	-0.3939841349	 0.8655386903	 0.12721
H	-1.0090689062	-0.3975995889	-0.0421281815	 0.125132
H	 1.560428574	-4.7002329751	-2.6222313974	 0.138317
H	 2.0822895132	-2.2856641051	-4.3221723282	 0.249619
H	 1.8115218382	-0.856600969	-3.5302723416	 0.255628
