16
gdb 29625	2.34287	1.98042	1.08038	3.0152	77.91	-0.1953	-0.0366	0.1587	1053.9338	0.126009	-434.098583	-434.090588	-434.089644	-434.131116	30.299	
C	-0.0603355973	 1.4516691556	 0.0036343806	-0.337149
N	-0.0076875628	-0.0089462854	 0.0317441426	-0.153259
C	 0.0599117898	-0.6690994876	-1.2138993292	 0.329363
N	 0.0702246902	 0.0560840136	-2.2760436414	-0.570861
C	 0.1095450679	-2.1219715794	-1.1065997333	-0.072206
N	 0.0953214634	-2.7852560528	 0.0057862605	-0.230048
C	 0.0291679246	-2.0912086355	 1.1773854114	-0.207208
C	-0.0215849698	-0.7235373992	 1.1902186299	 0.453965
O	-0.088080469	 0.0235640735	 2.3124301686	-0.414551
H	 0.8243811528	 1.8318486383	-0.5125270741	 0.15629
H	-0.9324293916	 1.7673903619	-0.5738357618	 0.1563
H	-0.109826963	 1.8339773542	 1.0187278983	 0.152332
H	 0.120833274	-0.5427641852	-3.0983413612	 0.214443
H	 0.1623833295	-2.6781989319	-2.0404526125	 0.109456
H	 0.017746722	-2.6549392054	 2.1035301616	 0.095694
H	-0.0926021505	-0.5690537248	 3.0721578299	 0.317439
