17
gdb 43950	3.28423	1.52275	1.42554	3.1707	73.52	-0.2438	-0.023	0.2208	956.5472	0.136841	-421.744802	-421.738105	-421.737161	-421.775747	27.591	
O	-0.1582430829	-0.0822235511	-0.4549077725	-0.272766
C	-0.084441798	 1.0648650622	-0.1570848483	 0.323688
C	-1.1654189611	 2.1895718531	 0.2018335513	-0.435486
C	-0.007329111	 2.8452557148	 0.9849881473	 0.224027
C	 1.018789143	 4.0328491253	 1.0813525114	-0.332464
C	 2.0216055326	 2.8035747988	 1.1510609219	 0.043691
O	 1.7175966427	 2.2121077532	 2.3967800933	-0.252744
C	 0.2792070517	 2.1499665488	 2.3349126989	-0.103673
C	 1.0244355032	 2.1432490654	 0.1056987337	-0.110345
H	-1.4505839766	 2.725992864	-0.707221492	 0.134624
H	-2.0642789369	 1.8687054917	 0.7331641427	 0.12736
H	 1.0981737064	 4.6240853477	 0.1691053527	 0.112555
H	 0.9987247532	 4.668151469	 1.970448073	 0.109591
H	 3.0982280955	 2.8867535732	 1.0125581043	 0.096697
H	-0.1621971471	 2.675181614	 3.1890461261	 0.108988
H	-0.0441505203	 1.1007253375	 2.3578991507	 0.118399
H	 1.1151476754	 2.6794558921	-0.8465080143	 0.107856
