15
gdb 15542	2.97736	2.12413	1.43844	3.5537	66.37	-0.2322	0.0018	0.234	866.2825	0.120336	-358.860117	-358.852514	-358.85157	-358.892387	26.696	
C	 0.0629715968	 1.3916410438	 0.0937987642	-0.34627
N	-0.1657259107	-0.0381607155	 0.0516177086	-0.047664
C	 0.0349315901	-0.8267532613	-1.0682655888	 0.076376
N	 0.1409962047	-2.0863393602	-0.9042637673	-0.258893
C	 0.018700328	-2.3199301045	 0.5407118824	-0.177435
C	 0.0663911306	-0.8995542754	 1.2131369274	-0.154895
C	 1.360784086	-0.6156505222	 1.8625176186	 0.276268
N	 2.3735588624	-0.3822422309	 2.3685841883	-0.323334
H	 1.0858437524	 1.6458399328	 0.4039069816	 0.147033
H	-0.1129857936	 1.8048756675	-0.9021975111	 0.141166
H	-0.6371209057	 1.8702149003	 0.7864490132	 0.136498
H	 0.0551897937	-0.341737454	-2.0401701735	 0.133173
H	-0.9408087185	-2.8034394129	 0.7561644847	 0.125578
H	 0.8135960928	-2.9735456974	 0.9054818896	 0.139428
H	-0.717704519	-0.7710921101	 1.966431062	 0.13297
