14
gdb 49343	2.36336	1.86539	1.04946	4.7783	67.06	-0.269	-0.0308	0.2382	1053.0446	0.102312	-470.056782	-470.049042	-470.048098	-470.089697	27.609	
N	 0.0928474282	 1.2859523592	 0.0070260395	-0.405725
C	 0.0215421853	 0.0248296783	 0.004161909	 0.082031
N	-1.2040361623	-0.6681041336	 0.0116894514	-0.199353
C	-1.258710402	-2.062948559	 0.0082862936	 0.354549
N	-0.2372712508	-2.8100697993	-0.0016496204	-0.525422
C	-2.7393183704	-2.3887511738	 0.0188735597	-0.189515
O	-3.4015228339	-1.1293558981	 0.0274460489	-0.241088
C	-2.5008276201	-0.1013316317	 0.0232291302	 0.521438
O	-2.8105355057	 1.0441298806	 0.0288631582	-0.329486
H	 1.0721851046	 1.5696440509	 0.0002641734	 0.240372
H	 0.8466130467	-0.6904848047	-0.0041251272	 0.150753
H	-0.4972827282	-3.7948585295	-0.0023189912	 0.234131
H	-3.0329417058	-2.9541599386	-0.8716493898	 0.153656
H	-3.0191202955	-2.9590260507	 0.9107428449	 0.153659
