13
gdb 19100	5.33399	2.16702	2.05622	1.0108	58.95	-0.2457	-0.0242	0.2215	664.3883	0.097357	-361.382008	-361.376831	-361.375887	-361.411233	20.889	
O	 0.0085096382	-0.028068708	 0.0446605162	-0.311706
C	-0.0114506307	 1.1644155446	 0.0642573463	 0.438197
C	-1.102257072	 2.256468986	-0.0237876892	-0.206988
C	-0.7821635743	 3.234407648	 1.1198463541	-0.041753
C	 0.7180563026	 3.2598455293	 1.0986925759	-0.041755
C	 1.0387640743	 2.2928000944	-0.0539964576	-0.206984
C	-0.0571564008	 3.1494568055	-0.7876359546	 0.017493
N	-0.0606381433	 4.2487143596	 0.2864741495	-0.171602
H	-2.1282913705	 2.071273617	-0.3261835481	 0.099977
H	-1.3938991827	 3.5077024887	 1.9697997869	 0.110953
H	 1.343889303	 3.5541203798	 1.931198914	 0.110953
H	 2.0615532854	 2.1423741609	-0.3852990276	 0.099977
H	-0.0761243792	 3.3861500542	-1.8473679558	 0.103239
