18
gdb 79148	2.49536	1.97491	1.51494	2.7903	69.01	-0.2399	0.046	0.2859	919.8801	0.150059	-439.044506	-439.03726	-439.036316	-439.075828	29.567	
O	 0.0492643154	 1.4501427929	 0.2212530351	-0.456532
C	-0.0359978741	 0.0631722056	 0.0065489309	 0.140945
C	-1.4077556681	-0.5960190292	-0.0633693595	-0.069057
C	-2.0481323194	-0.4396749232	-1.3903845401	-0.020465
C	-1.6255773165	 0.6910960188	-2.3165679579	-0.29268
C	-0.1198601399	 0.3965561722	-2.5411730718	 0.113532
O	 0.7440076902	 1.5327751492	-2.4722633322	-0.43859
C	 0.2232538265	-0.5567115175	-1.3972096521	-0.073654
N	-0.9821926088	-1.4690718615	-1.2395608509	-0.16205
H	 0.4217589281	 1.8397151233	-0.5817644569	 0.29265
H	 0.5730212585	-0.4611378921	 0.7533615276	 0.086048
H	-1.9458488765	-1.0159872115	 0.7810673244	 0.091273
H	-3.0435508552	-0.8596223479	-1.4946604473	 0.094895
H	-2.1914293769	 0.6710719087	-3.2521926514	 0.10351
H	-1.7575839679	 1.6722912005	-1.8521043746	 0.121226
H	 0.0246568144	-0.1196258228	-3.5000445014	 0.090868
H	 0.4882509631	 2.1567515357	-3.1587536731	 0.295709
H	 1.1606291969	-1.0946589213	-1.532147039	 0.082373
