21
gdb 60142	3.39693	1.02799	0.96521	2.6422	79.05	-0.2277	0.0732	0.3009	1340.9739	0.180504	-424.169768	-424.160463	-424.159519	-424.204597	34.635	
C	 0.0484527487	 1.5010419955	-0.0046688303	-0.389594
C	-0.0914969664	-0.0162909682	 0.0102133301	 0.154162
C	 0.0324663106	-0.5979867449	 1.4203410625	-0.391411
O	-1.3606281333	-0.3025774939	-0.5855989084	-0.260813
C	-1.5412730649	-1.6134119892	-0.9953704598	 0.121529
C	-2.2359601142	-2.6771089597	-0.1647651057	-0.199769
C	-3.4211365367	-2.039089065	 0.5555994315	-0.079405
O	-3.9330725965	-1.4690111038	-0.6769022615	-0.276447
C	-2.887888412	-2.0873324433	-1.4189165636	 0.035586
H	 1.0185460286	 1.8031710381	 0.4010201897	 0.111241
H	-0.040665023	 1.8832161296	-1.0246977738	 0.123294
H	-0.7390687455	 1.9592820996	 0.6018742368	 0.125632
H	 0.6961532773	-0.4564252868	-0.6244969395	 0.064885
H	 1.0150060286	-0.3617461281	 1.841824672	 0.112895
H	-0.7335896434	-0.1724262802	 2.0766266589	 0.121456
H	-0.0798038435	-1.6850905984	 1.4162591585	 0.122017
H	-0.727514687	-2.0187174387	-1.6026125162	 0.086825
H	-1.8191166748	-3.6549498605	 0.0400723664	 0.095145
H	-4.131353709	-2.7672283826	 0.9615114602	 0.107649
H	-3.1965535988	-1.272298581	 1.3045231449	 0.111537
H	-3.1367711349	-2.4929451485	-2.3940769627	 0.103584
