17
gdb 19884	3.391	2.17868	1.97416	2.3217	66.51	-0.2144	0.0646	0.2789	767.6154	0.144445	-363.810107	-363.80358	-363.802636	-363.84039	26.452	
O	 0.0906630822	 1.4229977667	-0.0894874582	-0.406177
C	-0.004590694	 0.0304886397	 0.0037510836	 0.079272
C	-0.4473596315	-0.6768027434	 1.2584504223	-0.112374
C	-1.2131752372	 0.1104562185	 2.3290826584	-0.183202
N	-2.5891168452	 0.382416698	 1.8451153045	-0.098046
C	-2.7142134826	 1.4251640916	 0.8144449855	-0.25739
C	-2.6367065951	-0.008192733	 0.4215909605	-0.033087
C	-1.338138552	-0.6694213382	 0.0160394565	-0.081402
H	 0.8683499661	 1.6963127209	 0.4094691854	 0.289534
H	 0.763269338	-0.4906197184	-0.5707604294	 0.089441
H	 0.0978411865	-1.5611747728	 1.572853013	 0.086148
H	-1.286848881	-0.4965690756	 3.2365212575	 0.109878
H	-0.7157563151	 1.048569013	 2.6041946821	 0.096498
H	-3.6797757324	 1.9258648186	 0.8106656667	 0.10316
H	-1.8623233783	 2.0556042324	 0.5985377733	 0.141093
H	-3.5353883395	-0.5250703415	 0.0940248701	 0.087057
H	-1.430641719	-1.5459998665	-0.6153696719	 0.089599
