18
gdb 10903	3.15701	1.96273	1.40559	3.0313	72.75	-0.2319	-0.0059	0.226	937.7235	0.152685	-347.807436	-347.799221	-347.798277	-347.83975	30.549	
C	-0.096371382	 1.6318348778	-0.042653004	-0.414821
C	 0.0532879154	 0.1156661228	-0.0673815586	-0.098074
C	 0.7480119859	-0.598245421	-1.2433017762	-0.115562
C	 2.1908899016	-0.231121873	-1.2905426436	-0.324301
C	 1.7579381926	-1.2982706757	-0.2891789406	 0.224398
C	 2.3383508871	-2.6828822773	-0.2570075056	-0.497781
C	 1.0809358897	-0.6010470999	 0.8565886414	 0.34566
O	 1.1668154533	-0.7064549796	 2.049055326	-0.323217
H	 0.8392161451	 2.1398385325	-0.2944478405	 0.11841
H	-0.8601567206	 1.9651619976	-0.7529088409	 0.118907
H	-0.3970870597	 1.9631282201	 0.9561723859	 0.135263
H	-0.9163712634	-0.354781227	 0.1423125101	 0.10201
H	 0.236304841	-1.0574857772	-2.0797736435	 0.099043
H	 2.7616578068	-0.6317120972	-2.1231085236	 0.12175
H	 2.53494382	 0.7432296053	-0.9561264132	 0.121302
H	 2.5584164512	-3.0425287101	-1.2670833232	 0.119757
H	 3.2727037374	-2.6996266191	 0.3142342205	 0.137387
H	 1.6497597185	-3.3907149491	 0.2154909795	 0.129869
