21
gdb 7368	3.51058	1.19303	0.96681	3.4256	76.6	-0.2305	0.037	0.2676	1288.8073	0.186961	-366.302441	-366.292192	-366.291248	-366.338243	35.517	
C	 0.376555124	 1.4369904757	 0.053354446	-0.378884
C	 0.1295112854	-0.0731482789	 0.0833660612	-0.170169
C	-1.3636656264	-0.4171017384	 0.0131696482	-0.151397
N	-1.6335376884	-1.8523882923	 0.0808010406	-0.070305
C	-1.8226869337	-2.4163300628	 1.40272123	-0.343883
C	-1.650184813	-2.5594150076	-1.0945961193	 0.398957
C	-1.9575392245	-4.0504924224	-1.0261939483	-0.499684
O	-1.432098301	-2.0142252038	-2.1660855015	-0.383546
H	 1.4458905685	 1.6642039359	 0.0950772159	 0.115118
H	-0.0227987024	 1.8840724151	-0.8633994453	 0.123249
H	-0.1028351444	 1.937982425	 0.9023017288	 0.110676
H	 0.6275214429	-0.5535586416	-0.765215867	 0.124074
H	 0.5651197865	-0.5025081388	 0.9948017547	 0.089695
H	-1.9036016034	 0.064789945	 0.8379468331	 0.09039
H	-1.7777521552	-0.047464998	-0.9274774827	 0.135896
H	-1.9306096415	-3.4981315053	 1.3556611232	 0.138067
H	-0.9643811919	-2.1943365727	 2.0496915406	 0.128316
H	-2.7194385999	-2.0032364882	 1.8843282616	 0.12549
H	-2.9203671481	-4.253232059	-0.5471363125	 0.134137
H	-1.9843514048	-4.4183108155	-2.0512296382	 0.147484
H	-1.1871411689	-4.5996152014	-0.4750658992	 0.136319
