21
gdb 69653	3.98528	1.13842	1.06972	1.7844	82.94	-0.2417	0.0856	0.3272	1233.5864	0.181862	-387.050478	-387.042003	-387.041059	-387.083317	33.343	
C	 0.3586479068	 1.5169661624	 0.0928617363	-0.49977
C	-0.0141637276	 0.0721898193	 0.1582044438	 0.429914
C	-1.3831361367	-0.5836477989	-0.1044488979	-0.399785
C	-0.9769404451	-1.7358706919	 0.8711433275	 0.373547
C	-1.789214704	-2.0556706191	 2.1529113612	-0.290343
C	-1.3482882272	-3.5392187869	 2.0110388953	-0.20836
C	-0.9677933916	-3.2448819426	 0.5331370205	-0.27671
C	 0.3688419104	-1.0210410952	 1.0688859572	-0.113286
O	 0.9725747239	-0.9019267908	-0.2282757906	-0.294044
H	 1.3668045462	 1.6698110951	 0.4872695471	 0.132597
H	 0.3400054746	 1.876677402	-0.9424132728	 0.129672
H	-0.3429128779	 2.126628317	 0.6715600018	 0.122341
H	-2.226033791	 0.0002913919	 0.2780957836	 0.100384
H	-1.5714470769	-0.8610462672	-1.1455235238	 0.102746
H	-1.5167290788	-1.5224009449	 3.0688202605	 0.094196
H	-2.8639038477	-1.9308757444	 1.9869473484	 0.099979
H	-0.4706456222	-3.7652485145	 2.6229115573	 0.102978
H	-2.103570662	-4.306165311	 2.195785611	 0.096888
H	-1.7787964666	-3.5067322136	-0.1537910996	 0.09866
H	-0.0340773882	-3.6563027301	 0.1427734839	 0.10758
H	 1.0347145214	-1.0392515266	 1.9266479791	 0.090817
