19
gdb 36618	5.29458	0.7523	0.72119	5.0016	80.67	-0.2643	0.039	0.3033	1567.157	0.160292	-382.05043	-382.041796	-382.040852	-382.084634	31.866	
N	 0.002481304	-1.2097525606	 0.1841247416	-0.306186
C	 0.0180756813	-0.0547374795	 0.2207877198	 0.256513
C	 0.0596883835	 1.4045364426	 0.2532245099	-0.339217
C	 1.400007097	 1.974973236	-0.2643822731	-0.299368
C	 1.3988063276	 3.4757110068	-0.236446759	 0.359837
C	 0.7176627274	 4.4176466848	-1.250593489	-0.299334
C	 1.8799861486	 5.4432380796	-1.0308461816	-0.234283
C	 2.5076253517	 4.469877589	-0.0237604708	-0.099777
N	 1.5727513156	 4.1462619558	 1.0511344597	-0.35648
H	-0.7752837458	 1.7871712065	-0.3453877706	 0.149987
H	-0.1028586998	 1.7421329026	 1.2825769698	 0.165599
H	 2.2121986441	 1.6022442657	 0.3661717073	 0.132876
H	 1.5814817161	 1.6157369375	-1.2831283925	 0.119065
H	 0.7070253335	 4.0203608154	-2.2688165565	 0.112263
H	-0.2960419805	 4.7437826211	-0.9937519998	 0.097875
H	 2.4818477547	 5.5850423996	-1.9312746298	 0.113842
H	 1.6120122421	 6.4270831163	-0.631618965	 0.102781
H	 3.5647940606	 4.3125287968	 0.1595289908	 0.100059
H	 0.8933712184	 4.888106554	 1.2140308689	 0.223949
