17
gdb 66121	2.63658	1.50451	1.33231	2.7443	71.47	-0.2564	0.0126	0.269	1018.838	0.137186	-418.001252	-417.993276	-417.992332	-418.03354	30.868	
O	-0.0663772389	 1.3968147166	-0.0053359278	-0.458923
C	 0.0087063983	-0.0136589355	 0.0211643444	 0.275532
C	 0.6426503196	-0.5995122846	 1.3188204713	-0.290154
C	-0.0218228728	-1.9787028803	 1.517900695	-0.220783
C	-1.4009347987	-1.8046917551	 0.9017578548	-0.020956
N	-2.0475528947	-0.5451021905	 1.3232720055	-0.342675
C	-1.390993552	-0.6226796224	 0.0074102026	-0.05842
C	 0.7421857144	-0.5017062935	-1.1725977683	 0.232753
N	 1.3363268119	-0.8666127718	-2.0946683453	-0.338598
H	 0.8288979734	 1.7523315218	 0.0315141691	 0.291265
H	 1.7319913521	-0.6500721905	 1.2624437593	 0.111643
H	 0.3601918965	 0.080847947	 2.1238690805	 0.140826
H	 0.5209527739	-2.7603367207	 0.975141385	 0.120591
H	-0.0600180799	-2.267602924	 2.5723059837	 0.114298
H	-2.0168106227	-2.6708402537	 0.6846044045	 0.095621
H	-3.0531999576	-0.6096827712	 1.1892854521	 0.239946
H	-1.9776899426	-0.5568782319	-0.9014012965	 0.108033
