21
gdb 95919	2.25419	1.46729	1.19636	0.846	83.96	-0.2463	0.0522	0.2985	1162.5552	0.181128	-387.071272	-387.061597	-387.060653	-387.105569	36.599	
C	-0.5463772202	 1.3193779136	 0.0196471885	-0.417286
C	 0.0854229972	-0.0587799639	-0.0273129894	 0.124455
O	 1.1272646501	-0.0713062955	-0.9905252125	-0.266884
C	 1.8784314149	-1.2673468826	-0.8022385211	-0.087905
C	 1.6488911976	-1.7193219426	 0.6627800161	-0.281773
C	 0.7818334674	-0.5771894925	 1.2732215429	 0.093097
C	 1.6807359563	 0.5036820159	 1.9101459723	-0.43881
C	-0.1888917823	-1.0680144216	 2.2439187546	 0.287461
C	-1.0024886646	-1.4567672086	 3.0400518681	-0.457957
H	 0.2007826757	 2.0910262864	 0.2196446878	 0.125491
H	-1.0195686749	 1.5461145648	-0.939467684	 0.125819
H	-1.3126861854	 1.3540385887	 0.7995264031	 0.12792
H	-0.6868634314	-0.800033669	-0.296314333	 0.067148
H	 1.5440061454	-2.0420866221	-1.5067924195	 0.097057
H	 2.9254034337	-1.0396545397	-1.0238343733	 0.108438
H	 1.1041914374	-2.6648854983	 0.6992974731	 0.116223
H	 2.5816232573	-1.8525535228	 1.2154266193	 0.111191
H	 2.3582277333	 0.9197918604	 1.1592277982	 0.12858
H	 1.0872804567	 1.317226443	 2.3339981373	 0.125971
H	 2.2768129518	 0.0685136703	 2.7168232815	 0.12075
H	-1.716653266	-1.8046730938	 3.7446460098	 0.191015
