16
gdb 44599	3.00123	1.94061	1.54368	3.7448	68.13	-0.2538	0.0111	0.2649	874.4227	0.127415	-437.880349	-437.874005	-437.873061	-437.911101	25.651	
N	-0.0690409397	 1.2582073981	 0.1586426317	-0.534462
C	-0.021517806	 0.0165934841	-0.0371895417	 0.416047
O	 1.1320827598	-0.7180766226	-0.2191991606	-0.241791
C	 0.7904590296	-2.0002887748	-0.723146617	 0.068508
C	 0.0437257296	-2.9552981068	 0.1774796259	-0.111476
C	-0.4000325414	-2.4385710629	 1.5418480534	-0.105393
O	-1.3885719486	-1.4362510183	 1.2920287323	-0.25384
C	-1.2047487448	-0.9500388206	-0.0379704645	-0.0133
C	-0.6917972454	-2.1339111991	-0.864092563	-0.11993
H	 0.8692682865	 1.6636386876	 0.1608412353	 0.226292
H	 1.5070624505	-2.3593616073	-1.4508422058	 0.11458
H	 0.2051564674	-4.0176376471	 0.0375754229	 0.103313
H	-0.8611699917	-3.2277654262	 2.1430127655	 0.116056
H	 0.4406419021	-2.0135555997	 2.1066307973	 0.114848
H	-2.1299450643	-0.4808713056	-0.3662036373	 0.112835
H	-1.2138850735	-2.5258340389	-1.7255484944	 0.107711
