15
gdb 129923	2.44555	1.86552	1.06044	4.0954	75.86	-0.1826	-0.0242	0.1584	1052.9064	0.11563	-450.164548	-450.156669	-450.155725	-450.196386	31.054	
N	 0.0181587522	 1.4037892084	 0.1351596556	-0.592874
C	-0.0222178472	 0.0157969326	 0.0590872012	 0.167989
C	-1.1683697319	-0.7393637408	 0.0352599501	-0.060668
N	-1.1008166651	-2.090242134	-0.004051635	-0.224204
N	 0.0272813292	-2.8174073521	-0.00098905	-0.302219
C	 1.1482916205	-2.1332063924	 0.0433710215	 0.28856
N	 2.3456681446	-2.7940380059	 0.0966999595	-0.549233
C	 1.2442051719	-0.6697724623	 0.0513037265	 0.295266
O	 2.3394507904	-0.0857512625	 0.0322023499	-0.448807
H	 0.9586340702	 1.7287827731	-0.0619178312	 0.261565
H	-0.682268848	 1.8965074892	-0.399634217	 0.242345
H	-2.1664658616	-0.3167499947	 0.0392135069	 0.122697
H	-1.9407332664	-2.6430760519	-0.0335972339	 0.277509
H	 2.3680852308	-3.7417979636	-0.2422090471	 0.253939
H	 3.1326952003	-2.199897383	-0.1229622569	 0.268136
