17
gdb 73527	2.80553	1.83283	1.41115	1.2647	73.92	-0.2147	-0.0097	0.2051	945.0809	0.138242	-418.017049	-418.009661	-418.008717	-418.048395	29.677	
O	-0.0679559953	 1.420502532	 0.1491149061	-0.482378
C	-0.0516548021	-0.0145392933	 0.1122474407	 0.331813
C	 0.9048498998	-0.6013192642	 1.1636199435	-0.298761
C	 2.244658763	-0.6697744312	 0.3600942985	-0.180254
N	 1.8718361722	-0.8610173321	-1.0648901705	-0.312611
C	 0.644335291	-0.541752531	-1.1425039985	 0.360611
N	-0.3056504685	-0.7302600364	-2.1280311567	-0.382805
C	-1.5454161593	-0.8238125789	-1.442720461	-0.022361
C	-1.4658828415	-0.470887594	-0.1508043955	-0.218729
H	 0.845275074	 1.7297052396	 0.1236846888	 0.281331
H	 0.955470488	 0.0102669071	 2.0676618605	 0.104473
H	 0.5974640436	-1.613525281	 1.4424736058	 0.113057
H	 2.8471135062	 0.2414603757	 0.4808992331	 0.101533
H	 2.8794710944	-1.5026143299	 0.6758798913	 0.113718
H	-0.1014494847	-1.3331240387	-2.9112623944	 0.256497
H	-2.4166739174	-1.1356922299	-2.003030162	 0.126693
H	-2.2976822835	-0.368834014	 0.5293997003	 0.108173
