17
gdb 58011	3.6638	0.83484	0.77749	2.6629	66.16	-0.2695	-0.0402	0.2293	1477.5632	0.131875	-496.136134	-496.126065	-496.125121	-496.172769	34.37	
C	 0.0908615387	 1.4205125209	-0.5061662453	-0.396064
C	-0.0850121725	 0.0840102299	 0.2270372846	 0.044905
O	 0.1501701598	 0.2333105874	 1.6041362487	-0.435656
C	-1.4787175536	-0.4895411378	 0.0146070876	 0.418671
O	-2.2545933519	-0.7019389604	 0.9174434374	-0.373249
O	-1.7502453509	-0.7367864452	-1.2777217886	-0.235463
C	-3.0378531014	-1.3109238672	-1.5330314393	-0.161942
C	-4.1690691907	-0.3159906305	-1.3020608753	 0.153487
O	-5.3254457541	-0.631573949	-1.343302909	-0.225194
H	 1.0909879899	 1.8074709215	-0.298058832	 0.138284
H	-0.025496747	 1.295857633	-1.5854638177	 0.127835
H	-0.6395984869	 2.151385268	-0.146509528	 0.127186
H	 0.6246848777	-0.6446170204	-0.1957452803	 0.10606
H	-0.6636712389	-0.0396315629	 2.0518118645	 0.297462
H	-3.0232950585	-1.6019398634	-2.586638119	 0.153839
H	-3.2041726322	-2.1955286181	-0.9131868288	 0.163548
H	-3.8362593175	 0.7306122443	-1.1248176797	 0.096291
