23
gdb 101705	3.39029	0.71551	0.65757	1.0073	82.61	-0.2528	0.0787	0.3315	1772.4853	0.203676	-425.403678	-425.39286	-425.391916	-425.440151	39.523	
C	-0.3888068919	 1.4868482292	-0.1286368798	-0.39196
C	 0.1111856949	 0.0439138856	 0.0176590367	 0.045895
C	 0.8808251812	-0.3926504596	-1.2299927584	-0.078756
O	 0.0057989654	-0.3315293093	-2.3488626266	-0.425071
C	 0.9847029842	-0.1654385788	 1.2680308953	-0.219083
C	 0.2661584143	 0.0889131234	 2.5777268206	-0.018457
C	-0.68427015	-0.952157341	 3.1442841179	-0.326196
C	 0.6364317611	-0.6731198896	 3.8180921061	 0.086699
O	 1.6770648805	-1.60323852	 3.7107669205	-0.41709
H	 0.4528345512	 2.191247466	-0.1352616731	 0.102259
H	-0.9345938697	 1.604660201	-1.0672342388	 0.131297
H	-1.0547263655	 1.768977343	 0.6919862483	 0.108927
H	-0.7626780221	-0.617604151	 0.0950202889	 0.080325
H	 1.7538813887	 0.2665328183	-1.3735323608	 0.080047
H	 1.2634254486	-1.4160776912	-1.0868412999	 0.080583
H	 0.5133091618	-0.5370559228	-3.1388364496	 0.284845
H	 1.3751967097	-1.1882364576	 1.2791147792	 0.105117
H	 1.8626115504	 0.4938850794	 1.2094947669	 0.091886
H	-0.017417141	 1.1229357359	 2.7513154306	 0.088311
H	-1.6030353716	-0.6337683416	 3.6250149666	 0.108063
H	-0.7568422537	-1.8897918149	 2.6014369446	 0.111798
H	 0.6168028374	-0.1287252274	 4.7624897531	 0.083177
H	 1.4394898461	-2.373395107	 4.2369333916	 0.287384
