14
gdb 55523	3.59236	1.00515	0.78744	3.2178	61.41	-0.2496	-0.0532	0.1965	1342.4838	0.100992	-507.24497	-507.235862	-507.234918	-507.279711	32.293	
N	-0.2531076643	 1.3504897406	 0.0881961691	-0.567164
C	 0.1187671374	 0.0222185794	 0.0875624923	 0.482728
O	 1.2588144738	-0.3611773934	 0.1506930034	-0.336113
N	-1.0030828786	-0.8321610159	 0.0609834198	-0.405959
C	-1.0030375854	-2.1991923309	-0.0221560421	 0.351427
O	-0.0631856287	-2.9496769493	-0.142778537	-0.337286
C	-2.4628409068	-2.7207692463	 0.0490456149	 0.340978
N	-2.5123211585	-4.0597303522	-0.0315569154	-0.516
O	-3.4094638047	-1.9589307514	 0.1628832056	-0.37985
H	 0.5149861219	 1.9889497296	-0.046874071	 0.271364
H	-1.1297893811	 1.6293655841	-0.3228166942	 0.260097
H	-1.9407342045	-0.4574578713	 0.1651029835	 0.272467
H	-1.6420082858	-4.5615626537	-0.1201899067	 0.288818
H	-3.3940152349	-4.5416872393	 0.0071068577	 0.274494
