21
gdb 121950	5.31246	0.61988	0.59458	1.4726	76.45	-0.25	0.0831	0.3331	1908.299	0.180331	-461.323909	-461.313659	-461.312715	-461.360172	36.155	
C	 0.0674588269	 1.3262497004	-0.1277542343	-0.227024
O	 0.021508281	-0.0755428065	-0.0257052281	-0.232731
C	-1.296823958	-0.5801494053	-0.0105650813	-0.056222
C	-1.2278134804	-2.0989007229	 0.068125752	-0.217011
C	-2.6171701943	-2.7500754973	 0.1073653854	 0.083182
O	-3.4029874763	-2.3935779905	-1.0182156921	-0.436374
C	-2.5018554995	-4.2649214772	 0.2042732854	 0.065478
C	-3.5743637214	-5.1475689519	-0.2603910053	-0.187966
O	-2.4023087188	-4.9265278332	-1.0644457115	-0.250045
H	 1.119878173	 1.6209083629	-0.137880507	 0.12464
H	-0.4113481872	 1.6862185723	-1.0525181557	 0.103207
H	-0.4297381478	 1.816363561	 0.7250595713	 0.100915
H	-1.8524058283	-0.177045415	 0.8555578069	 0.078718
H	-1.8448729941	-0.2740038996	-0.9144634747	 0.102614
H	-0.6701287161	-2.4806398841	-0.7958735117	 0.11331
H	-0.663413975	-2.3849023785	 0.9641948816	 0.102718
H	-3.1640778067	-2.3839331061	 0.9870033808	 0.093194
H	-3.0881108606	-2.9559940556	-1.740454629	 0.290071
H	-1.8107633485	-4.6389395138	 0.96022418	 0.098545
H	-3.6643015047	-6.1503355918	 0.1523925406	 0.120557
H	-4.4870416332	-4.7064288871	-0.6524807832	 0.130224
