18
gdb 79390	2.48741	1.5697	1.47129	2.3303	71.98	-0.2494	0.0649	0.3142	1002.4834	0.146389	-438.99256	-438.984235	-438.983291	-439.024852	32.595	
C	 0.0337197109	 1.4710936673	-0.0266945159	-0.52713
C	-0.0346522959	-0.0219116937	-0.1165446843	 0.274179
C	 0.5212294756	-0.9610149865	-1.2068911093	 0.113736
O	 1.8902485341	-0.9106458239	-1.4924242737	-0.455381
C	 0.0264709817	-1.8981764673	-0.0991079518	-0.137032
N	 0.5782341049	-0.949915436	 0.9931228552	-0.21435
C	-0.7648956192	-0.9787818051	 1.7134981779	-0.253542
C	-1.1976549822	-0.9848437166	 0.2472496558	 0.308811
O	-2.4510753164	-0.9253294456	-0.3346677315	-0.467736
H	 1.0624364103	 1.8120511282	-0.1791328899	 0.134607
H	-0.5946371874	 1.924343294	-0.8002573765	 0.136075
H	-0.3100081884	 1.835403652	 0.9466478048	 0.126376
H	-0.0211301538	-0.9855614061	-2.1541446099	 0.096709
H	 2.3491894444	-0.9154909622	-0.6425024275	 0.293217
H	 0.1229418641	-2.9788971217	 0.0209167335	 0.080043
H	-0.9164413946	-1.8875394847	 2.3056494929	 0.098936
H	-0.9650912065	-0.0879763376	 2.3165977856	 0.10696
H	-2.9499128217	-1.7106021748	-0.0831017255	 0.285524
