23
gdb 105050	2.56767	1.23808	1.09747	1.859	84.72	-0.2602	0.0885	0.3487	1270.4579	0.203878	-388.266133	-388.256171	-388.255227	-388.300964	37.907	
C	 0.1605699941	 1.5565782833	 0.247381069	-0.403773
C	 0.4507448712	 0.057977992	 0.1187564291	-0.251311
C	 0.7135780968	-0.4791126784	-1.2893888062	 0.284582
C	 0.1216421942	 0.1933727394	-2.5027562733	-0.31343
C	 1.6078298803	 0.2743454912	-2.2467345827	-0.306029
C	 0.8283494753	-1.9908421225	-1.3281908887	 0.353118
C	 1.9618319567	-2.6030201125	-0.5306489599	-0.468207
C	-0.365613988	-2.801540202	-1.6171863684	-0.2258
O	 0.6366944292	-2.591618329	-2.618149431	-0.279845
H	 0.973997142	 2.1698575751	-0.1527516667	 0.12113
H	-0.7617570657	 1.8410207445	-0.2672884874	 0.121967
H	 0.0415314072	 1.8233372492	 1.3019294066	 0.114983
H	 1.3146966196	-0.1820801049	 0.7515410098	 0.10179
H	-0.3950358109	-0.4999064587	 0.5440864372	 0.096394
H	-0.2026369123	-0.4459163736	-3.3146715658	 0.12794
H	-0.4691493506	 1.0902348672	-2.3602366938	 0.104766
H	 2.0273919189	 1.2240169225	-1.9336480739	 0.107209
H	 2.2545986104	-0.3100807092	-2.8925880202	 0.119606
H	 1.8276154389	-2.444170852	 0.5435097395	 0.123463
H	 2.0137743815	-3.6783214144	-0.7171059314	 0.124969
H	 2.9184951234	-2.1559472396	-0.8204054023	 0.126594
H	-0.4371236971	-3.8210946718	-1.2402097911	 0.109218
H	-1.317074495	-2.3060864557	-1.8050710081	 0.110665
