17
gdb 5723	4.63723	2.05482	1.47475	2.173	74.86	-0.1915	0.0525	0.244	847.0323	0.146537	-326.777356	-326.771076	-326.770132	-326.807616	25.051	
C	 0.0247893823	 1.5228580365	-0.0246279542	-0.208677
C	 1.528773068	 1.8898611255	-0.0006065968	-0.178514
N	 2.1103265767	 0.7268610493	 0.6467040224	 0.016535
C	 3.3305334607	 0.4121402517	 1.1816656044	-0.143392
C	 3.2791781029	-0.9177331233	 1.5488327133	-0.139286
C	 1.9875437244	-1.4202865508	 1.2107486934	-0.325846
C	 1.290882425	-0.373411874	 0.6502244472	 0.35609
C	-0.0158373079	-0.0320748555	-0.0018995145	-0.348123
H	-0.4548276215	 1.9135606378	 0.8774945539	 0.11784
H	-0.4892940512	 1.9518140411	-0.8874216895	 0.106139
H	 1.935194317	 2.0158569358	-1.0130287035	 0.114707
H	 1.7339510167	 2.8060877649	 0.5609507291	 0.118095
H	 4.1153425168	 1.1458335711	 1.2721581728	 0.108761
H	 4.0774747101	-1.4680818579	 2.0242207474	 0.088184
H	 1.623121752	-2.4234535454	 1.3704214772	 0.088135
H	-0.8870462058	-0.4102485836	 0.5404644341	 0.116098
H	-0.075075326	-0.4374521631	-1.0209655067	 0.113256
