20
gdb 40808	4.05377	1.04487	0.87891	2.0134	80.35	-0.2442	0.026	0.2702	1334.8252	0.173085	-403.149604	-403.141481	-403.140537	-403.182791	31.121	
C	-0.1917850123	 1.4132000826	-0.1237561052	-0.278086
C	 1.2470699029	 1.023389218	 0.1168024408	-0.266456
C	 0.1883848815	-0.0387943466	 0.0289555848	 0.041799
C	-0.2295801573	-0.8047172313	 1.2667474179	 0.026922
C	-1.6633824766	-1.3441399736	 1.1559449323	-0.235107
C	-1.9304373472	-2.2961434899	 2.3129108248	-0.080678
O	-0.94071597	-3.3359100354	 2.3689127972	-0.22516
C	 0.3113625608	-2.9760315846	 1.9952711188	 0.125105
N	 0.7344067144	-1.8816267141	 1.5250420364	-0.275326
H	-0.7304403485	 1.8859877855	 0.6920568121	 0.104959
H	-0.4753689453	 1.7746956223	-1.10590732	 0.109422
H	 1.9512081308	 1.1169778677	-0.7021668344	 0.111109
H	 1.6739900417	 1.2282656668	 1.0928992114	 0.114271
H	 0.1843378019	-0.6409386163	-0.8761956453	 0.08146
H	-0.1785450882	-0.1084986284	 2.1181130058	 0.076237
H	-2.3951589124	-0.5302381479	 1.1615739807	 0.106972
H	-1.7783580623	-1.8828618039	 0.2076666862	 0.110565
H	-1.9179722546	-1.7593328275	 3.2707416044	 0.111524
H	-2.8921222163	-2.80652901	 2.2201998707	 0.118153
H	 0.9908249072	-3.8123025132	 2.1540419007	 0.122314
