17
gdb 55497	3.56425	0.60548	0.55889	2.2507	79.08	-0.2439	-0.0356	0.2083	1928.8781	0.130988	-421.828268	-421.817673	-421.816729	-421.867544	34.9	
C	 0.9239341214	-0.376296382	-0.5681396036	-0.472996
C	 0.060218517	-0.0253302686	 0.6229052063	 0.393673
O	 0.445847202	 0.6616209275	 1.5356306347	-0.28428
C	-1.3949561591	-0.5461302768	 0.620320106	-0.442922
C	-1.5866845944	-1.8833901882	 0.0789197967	 0.079217
C	-1.7479079858	-2.9897633746	-0.3693463169	 0.034875
C	-1.8949509024	-4.344920894	-0.8802599624	-0.412179
C	-0.8118308532	-5.2857356302	-0.3451215137	 0.169816
O	-0.2738767145	-6.1272192917	-1.0105678405	-0.227146
H	 1.8714938823	 0.1590330886	-0.5054717973	 0.144322
H	 1.1051836735	-1.4557243097	-0.5883974216	 0.155783
H	 0.4097910532	-0.130330833	-1.5037916697	 0.140949
H	-1.7619363635	-0.4712074621	 1.648506474	 0.156558
H	-1.9760802174	 0.1774486454	 0.028659876	 0.15559
H	-2.8622775618	-4.7641169033	-0.5626005805	 0.15793
H	-1.8737463966	-4.3856121167	-1.9741136424	 0.155084
H	-0.5668033209	-5.1341511607	 0.7284879049	 0.095726
