16
gdb 18691	3.14409	2.36135	1.51101	4.5516	64.27	-0.2561	0.0073	0.2634	828.9647	0.132801	-383.769708	-383.763078	-383.762133	-383.800711	25.504	
O	 0.0518043567	 0.0103080574	 0.2221646518	-0.332469
C	 0.0210370532	 1.1845477704	-0.0266985846	 0.415114
O	-1.1803180103	 1.8074906263	-0.1835889621	-0.23394
C	-1.2245828617	 3.0289337075	-0.94318377	-0.070988
C	-0.2980838755	 4.0953835019	-0.3749216962	-0.241221
C	 1.1200729219	 3.5450696335	-0.2532471009	-0.040476
C	 1.5635954002	 2.9542310302	 1.0510438408	-0.278016
C	 1.2440337405	 2.0398181387	-0.1222467104	-0.158372
H	-0.9616737266	 2.8063593634	-1.9853578592	 0.113879
H	-2.2713293056	 3.340283189	-0.9165988644	 0.12329
H	-0.3159047052	 4.9689817116	-1.034250336	 0.112817
H	-0.6746847685	 4.4241002732	 0.5996733157	 0.117095
H	 1.8796436472	 4.0349631128	-0.8530116059	 0.097266
H	 2.6054495165	 3.0302299331	 1.3395766258	 0.125624
H	 0.8637152192	 2.9747133951	 1.8800959327	 0.131393
H	 2.0837281482	 1.5274393258	-0.5752511971	 0.119003
