20
gdb 59731	3.27672	1.13394	1.0186	1.6441	75.79	-0.2498	0.0222	0.272	1249.4526	0.171786	-440.304487	-440.295647	-440.294702	-440.338043	33.468	
C	 0.040157953	 1.5421442922	-0.0803251752	-0.410947
C	 0.0124897494	 0.0253172529	 0.1191795312	 0.123523
O	 0.607509202	-0.3524937545	 1.3517979865	-0.435363
C	-1.4048091176	-0.5557577222	 0.0121375188	 0.12297
C	-1.458632337	-2.0786789855	 0.0530127761	-0.241993
C	-2.9170297297	-2.5361927991	 0.1512960751	-0.167793
N	-3.6854745149	-1.8014522788	 1.1538628868	-0.259359
C	-3.2392332347	-0.687821599	 1.5435014783	 0.128276
O	-2.1355202781	-0.0058081496	 1.1338745647	-0.261993
H	 1.0610072452	 1.9119458332	 0.0425810739	 0.125899
H	-0.3115281909	 1.8158665881	-1.0808350107	 0.112264
H	-0.6022601736	 2.0394423219	 0.6527664257	 0.127458
H	 0.6209360781	-0.4544761419	-0.6570794082	 0.089319
H	 0.0141715487	-0.0374087481	 2.0447735229	 0.284952
H	-1.8846175919	-0.1854972733	-0.9046821264	 0.084564
H	-0.9747841193	-2.4881441334	-0.8402000982	 0.103117
H	-0.8880171907	-2.4197408962	 0.9223795795	 0.125378
H	-3.4246193613	-2.4285485438	-0.8169646294	 0.111631
H	-2.9694492736	-3.600911155	 0.4027310526	 0.114881
H	-3.7503855231	-0.1190006678	 2.3186157561	 0.123215
