17
gdb 7661	3.20105	2.24826	1.57442	1.8718	64.63	-0.2418	0.0585	0.3003	832.6199	0.142348	-400.924771	-400.917534	-400.91659	-400.955542	29.346	
C	-0.088024156	 1.5437969367	-0.0498885762	-0.478481
C	-0.0052113396	 0.0293156143	-0.0314626565	 0.472697
O	-1.2771988761	-0.5350662118	-0.3339788354	-0.494439
C	 1.2629306358	-0.6741676459	-0.6340207135	-0.168702
N	 2.0019249604	-0.11574467	 0.5658747644	-0.32765
C	 0.721779736	-0.6915391477	 1.1407406824	-0.142602
C	 0.9299516329	-1.9513354692	 0.2200949699	 0.170461
O	-0.0565891973	-2.8716915998	-0.093410423	-0.441944
H	 0.8702776933	 1.9860255757	 0.2191717759	 0.157617
H	-0.3642658686	 1.8981878001	-1.0518723572	 0.103311
H	-0.8577288571	 1.8857305256	 0.6492513172	 0.124155
H	-1.6270809172	-0.0852540658	-1.1101108741	 0.287552
H	 1.6685305339	-0.5958230224	-1.6452244829	 0.074196
H	 2.7771571061	-0.7436007593	 0.7974418961	 0.215332
H	 0.4913926899	-0.6345252017	 2.2063339669	 0.08019
H	 1.8277013656	-2.518570398	 0.4893891147	 0.077659
H	-0.8498746421	-2.3584218807	-0.3043311087	 0.290648
