18
gdb 102138	2.76165	0.83271	0.66122	5.3669	82.44	-0.2681	0.0191	0.2872	1678.1729	0.144499	-401.928784	-401.917991	-401.917046	-401.96665	35.907	
C	-0.2539182015	 1.3710369145	-0.0798040232	-0.239313
O	 0.1291224082	 0.0174931864	 0.066270291	-0.223642
C	 0.6891747783	-0.5500433571	-1.1007938397	-0.083758
C	 1.2816078884	-1.9101028651	-0.6712405218	-0.347049
C	 2.3684005412	-1.7588625038	 0.2933439644	 0.266581
N	 3.242972471	-1.6438527171	 1.0391402495	-0.307588
C	-0.2902111317	-0.7312946442	-2.1785627963	 0.075806
C	-1.1007434309	-0.8885088466	-3.0553961286	 0.088885
C	-2.0787043473	-1.0740822656	-4.117149396	-0.500998
H	 0.6052500322	 2.0038356003	-0.348072846	 0.112295
H	-1.0333887941	 1.4903109881	-0.8440252701	 0.118833
H	-0.644241936	 1.693134424	 0.8874592914	 0.136231
H	 1.5105360078	 0.0886536491	-1.466509879	 0.108468
H	 0.4814864131	-2.5109391206	-0.2286737384	 0.168002
H	 1.6514750742	-2.4422118064	-1.5523094973	 0.159515
H	-1.7741773349	-1.8784316473	-4.7953472966	 0.155813
H	-3.0601042906	-1.3374886768	-3.7085931491	 0.156884
H	-2.1969157374	-0.1627669618	-4.7129497241	 0.155036
