19
gdb 122486	2.21413	1.37645	1.02851	1.7677	78.62	-0.2451	0.0408	0.2859	1221.1445	0.157093	-422.959427	-422.949933	-422.948989	-422.994333	35.173	
O	-0.5984012067	 1.1526788716	-1.2285597084	-0.423535
C	-0.3423933363	 0.1923354116	-0.2229770454	-0.063648
C	-1.6179606801	-0.5234238558	 0.2079919397	-0.080498
O	-2.1505687309	-1.1746901983	-0.9446804359	-0.257214
C	-3.4866172431	-0.9591204967	-1.2389385147	 0.116003
C	-3.9898875223	 0.4309622953	-1.4924851989	-0.334998
C	-3.8001692155	-0.5316638593	-2.664272776	-0.22587
C	-2.7239336106	-0.3070899626	-3.5842390045	 0.342846
C	-1.8282111517	-0.1168606981	-4.3661401547	-0.463105
H	-0.9044633821	 0.6702578014	-2.0088973622	 0.294634
H	 0.3953029446	-0.5531650141	-0.5567220628	 0.097724
H	 0.0862470912	 0.7257703677	 0.6327889958	 0.105112
H	-1.4053701916	-1.2688280638	 0.9872364365	 0.096257
H	-2.3372141129	 0.2019032993	 0.6044464429	 0.108235
H	-4.1758408868	-1.6740766924	-0.7894215698	 0.095879
H	-5.0041111617	 0.6827269249	-1.2039908503	 0.121618
H	-3.2653637296	 1.2332299355	-1.4134694469	 0.151564
H	-4.7002130064	-0.9521575274	-3.1024507504	 0.117414
H	-1.0473698776	 0.0439663012	-5.067647914	 0.201582
