21
gdb 86802	4.33547	0.72628	0.69416	2.7181	79.63	-0.2415	-0.0086	0.2329	1684.604	0.179894	-424.238204	-424.228048	-424.227104	-424.274863	36.458	
C	-0.328250106	 1.4292374939	 0.00320918	-0.473047
C	-0.2501063074	-0.0834389273	 0.1202621895	 0.386712
O	-0.4223384603	-0.6513984958	 1.1749015554	-0.293734
C	 0.0598082164	-0.8453424872	-1.1645567959	-0.334524
C	-0.0304447597	-2.3547856859	-1.0182329617	 0.060351
C	-1.4313154904	-3.0159349515	-0.8861658076	-0.242089
C	-0.9241438167	-4.1701421627	-1.7714727137	 0.145258
O	-1.873954641	-4.6448143541	-2.6973825877	-0.431723
C	 0.2201346831	-3.2420340453	-2.2701058003	-0.301502
H	 0.5667434796	 1.8303124453	-0.4847404634	 0.133949
H	-1.183036443	 1.7099774286	-0.6232600031	 0.140863
H	-0.4444468317	 1.8735455296	 0.9924286228	 0.141959
H	-0.6118612528	-0.4852781461	-1.956731649	 0.112687
H	 1.0681277876	-0.5444349358	-1.4880245966	 0.119525
H	 0.6052625818	-2.6713354923	-0.1870294536	 0.086488
H	-1.8029335234	-3.2458365078	 0.1129415683	 0.111396
H	-2.1922140876	-2.4493677162	-1.4337813838	 0.102214
H	-0.5218498792	-4.9899432213	-1.1588145591	 0.066404
H	-1.4806149428	-5.3725971472	-3.1892562285	 0.28032
H	-0.0955398737	-2.7351367899	-3.1882429468	 0.098939
H	 1.2170691174	-3.6668284409	-2.416240095	 0.089555
