21
gdb 111547	2.60741	1.46615	1.13353	1.7602	81.49	-0.2241	0.0773	0.3014	1177.9158	0.181741	-387.031963	-387.023287	-387.022343	-387.065209	33.569	
C	 0.0038045877	 1.569027096	-0.1678352628	-0.381645
C	 0.0276356715	 0.0498330525	 0.0339357651	-0.207011
C	-1.3633745078	-0.5719922199	 0.0443637059	-0.026177
C	-2.138181911	-0.7281752715	-1.2988660151	 0.050031
O	-1.2197328882	-1.4773725005	-2.1480195168	-0.293473
C	-1.484676649	-2.5900618423	-1.2932413326	 0.047586
C	-2.7682684849	-2.0594328387	-0.7505054728	-0.203892
C	-1.5441734692	-2.0938276844	 0.166383527	 0.272511
C	-1.276552493	-2.9704015889	 1.3528053326	-0.513555
H	 1.0153108971	 1.9864946235	-0.1650133335	 0.111885
H	-0.4593227959	 1.8349920419	-1.1242592826	 0.118102
H	-0.5644545113	 2.068416123	 0.6253977502	 0.109265
H	 0.6126890676	-0.4235007141	-0.7612124821	 0.113359
H	 0.5305781118	-0.1858734848	 0.9810853875	 0.089067
H	-2.0164215667	-0.0762208844	 0.7740105276	 0.066221
H	-2.6286543019	 0.095483952	-1.8134078631	 0.081522
H	-1.1673709255	-3.5787725268	-1.5991832471	 0.104882
H	-3.7726948931	-2.450823987	-0.6656533466	 0.095803
H	-1.5861339916	-4.003829606	 1.1603334416	 0.119204
H	-0.2094901949	-2.9880488738	 1.6021907872	 0.126055
H	-1.8213346318	-2.6234914056	 2.2385020904	 0.120258
