16
gdb 130970	6.63154	0.71337	0.66981	1.1906	72.75	-0.2214	-0.0396	0.1818	1588.7912	0.125183	-434.07604	-434.06751	-434.066566	-434.111253	29.812	
O	-0.6340519436	 0.4416645486	 0.3437305129	-0.227387
C	-0.1346944582	 1.2392803952	-0.4035456168	 0.149104
C	 1.1387939077	 2.0144783248	-0.0983845435	-0.247556
N	 1.8829242359	 2.2932400619	-1.3268826432	-0.414236
C	 2.7404127832	 3.4004214438	-1.3415561039	 0.40914
C	 4.1145459036	 3.5197516662	-1.4341336487	-0.309171
C	 4.3471477108	 4.9130134459	-1.4526248977	 0.006744
N	 3.2230174008	 5.6137946567	-1.3687619019	-0.228281
N	 2.2543029239	 4.6699438665	-1.31024182	-0.23128
H	-0.5775056563	 1.4882752697	-1.3943873059	 0.088336
H	 0.8292967689	 2.9707711469	 0.3426548793	 0.143976
H	 1.71266718	 1.4800457374	 0.6713578333	 0.13268
H	 2.3691395037	 1.4699067166	-1.6567568874	 0.2473
H	 4.8344631003	 2.7179714127	-1.4635550677	 0.098588
H	 5.2938968205	 5.4301701623	-1.5123169719	 0.111679
H	 1.2889773787	 4.9524071248	-1.3209366967	 0.270365
