15
gdb 12058	3.61533	1.89284	1.57969	2.9504	61.15	-0.2507	-0.0314	0.2193	823.7364	0.118164	-399.755561	-399.748412	-399.747468	-399.786933	27.141	
O	 0.1946898462	 1.5105176702	 0.3984588115	-0.48955
C	 0.1147029668	 0.1484828641	 0.0966033708	 0.332148
C	 0.2396898095	-0.8949601244	 1.2761912717	-0.289992
C	-1.2080207768	-1.3030852072	 1.0220436794	-0.026106
N	-2.0177945255	-0.0581807783	 1.1255274562	-0.360843
C	-1.3245754542	-0.3915540213	-0.1412121659	-0.108561
C	 1.0402808911	-0.1170798169	-1.0726548773	 0.116693
O	 1.4915472621	-1.1971374355	-1.3546322935	-0.254862
H	-0.5581829409	 1.6871369405	 0.9812749548	 0.294622
H	 0.9527194182	-1.6784429224	 1.0132537757	 0.136075
H	 0.4644517266	-0.4661165497	 2.2549308936	 0.10899
H	-1.6664706556	-2.2706338429	 1.1788988468	 0.103941
H	-2.9994221711	-0.3062320209	 1.0112280665	 0.238132
H	-1.8643596296	-0.4808131509	-1.0758251883	 0.103854
H	 1.2538418532	 0.7933974155	-1.6732452919	 0.09546
