19
gdb 62129	4.849	0.74161	0.70453	5.1973	73.38	-0.2735	0.0117	0.2852	1603.4802	0.157521	-460.162788	-460.153243	-460.152298	-460.198154	34.209	
O	-0.4771441475	 0.9764947779	-0.3367953079	-0.423231
C	-0.0146026817	-0.3463053717	-0.1072181319	 0.085634
C	 0.9703276284	-0.7736593309	-1.1997554039	-0.108438
O	 0.3357289148	-0.8126061639	-2.4770763567	-0.174283
C	 0.3615677599	 0.3075546824	-3.2263617479	 0.188655
O	-0.2224241608	 0.4038196646	-4.2622237354	-0.275299
C	 0.5827925952	-0.5492673425	 1.2771173137	 0.004721
C	 1.3927198357	 0.5267239999	 1.963443753	-0.283013
C	 0.0168033722	 0.1709407906	 2.469336478	-0.268149
H	 0.2700938796	 1.5783936222	-0.2435396308	 0.282811
H	-0.9105996875	-0.9704458862	-0.2064725148	 0.113962
H	 1.8340043158	-0.0932410838	-1.2175672931	 0.106281
H	 1.3408597867	-1.7852696538	-1.0143487193	 0.126393
H	 0.9984875991	 1.1006067928	-2.7903058538	 0.062036
H	 0.917891326	-1.5690742621	 1.4483660231	 0.091631
H	 2.259218576	 0.2222166583	 2.539236838	 0.120588
H	 1.5133319011	 1.4926473097	 1.4818643744	 0.10032
H	-0.7768750774	 0.8834605179	 2.2761470294	 0.131731
H	-0.0695587757	-0.3685860715	 3.405381756	 0.117651
