20
gdb 40586	5.45846	1.02331	1.0028	1.5792	84.38	-0.224	0.0928	0.3169	1263.0837	0.172252	-365.895698	-365.888345	-365.887401	-365.927856	29.578	
C	-0.0698043121	 1.5466586938	-0.0586113769	-0.275306
C	 1.3234405766	 0.9910871407	 0.0707184595	-0.261506
C	 0.1456926895	 0.050696219	-0.0090771915	 0.006377
C	-0.2743104047	-0.7151443121	 1.2073297373	 0.042679
C	-1.518166524	-1.6057299694	 1.1980039034	-0.087895
C	-0.7155289586	-2.7242277754	 0.4635909676	-0.006426
C	-1.0536147119	-3.8026896388	 1.4957278875	-0.259472
C	-0.8548190384	-2.5053606932	 2.2822409153	-0.000881
N	 0.3609667769	-2.1012149367	 1.4028353724	-0.176133
H	-0.5104858183	 2.0227406281	 0.811565054	 0.110484
H	-0.3665690859	 1.9898461578	-1.0026029185	 0.11161
H	 1.9872649407	 1.0530424776	-0.7841066317	 0.11234
H	 1.8235825651	 1.086879508	 1.028743771	 0.116213
H	 0.0208985841	-0.4758951639	-0.9509588712	 0.078823
H	-0.1455401316	-0.096916775	 2.1067692727	 0.059248
H	-2.5786987996	-1.35226515	 1.0860696613	 0.061555
H	-0.5289415179	-2.8290222596	-0.6058097151	 0.08299
H	-2.0648714462	-4.2164403568	 1.4678308199	 0.09766
H	-0.2992424663	-4.5795255724	 1.6462841181	 0.108294
H	-0.8306002574	-2.3318100316	 3.359926365	 0.079348
