19
gdb 81411	3.97726	1.13061	1.09922	1.0905	75.28	-0.2478	-0.0251	0.2227	1149.7089	0.159989	-423.018208	-423.010167	-423.009223	-423.050902	31.083	
O	 0.2074097974	 1.4188138988	 0.0221353232	-0.45527
C	 0.0369276291	 0.025938754	-0.012084869	 0.188442
C	 0.1712174829	-0.7659253971	 1.3279816078	-0.059674
C	-1.3152612358	-0.3828128271	 1.6001717716	-0.267113
C	-1.430897349	-0.5223583536	 0.0526384246	-0.078266
C	-1.1645772257	-2.0427718013	-0.1561085281	-0.080102
C	 0.0349749115	-2.2170834753	 0.8320114552	-0.245283
C	-2.389122588	-2.8659383063	 0.1588716358	 0.134061
O	-2.5826440478	-3.4589211674	 1.1915840128	-0.243757
H	-0.2265089626	 1.7749331297	 0.8039191358	 0.283237
H	 0.6459847506	-0.3208436141	-0.8528773661	 0.0791
H	 0.9691454575	-0.5476748749	 2.0382700041	 0.066577
H	-1.9086492962	-1.0536495704	 2.2249232796	 0.123127
H	-1.4547823159	 0.6435583915	 1.9485921879	 0.088041
H	-2.2359722428	-0.065011241	-0.523628435	 0.071645
H	-0.8940564255	-2.230859747	-1.2020651768	 0.086468
H	 0.9350535678	-2.5753891236	 0.3254198801	 0.101341
H	-0.2204845394	-2.9147963823	 1.6324258464	 0.128994
H	-3.1603252881	-2.8669056025	-0.6457204898	 0.078431
