18
gdb 45357	2.92964	1.6421	1.44001	3.2524	72.09	-0.2551	0.0238	0.279	965.4526	0.150816	-439.1099	-439.102862	-439.101918	-439.141669	28.054	
N	-0.062190548	 1.2921171272	 0.5454016281	-0.514151
C	-0.0235296725	 0.1247827322	 0.0609958658	 0.387379
C	-1.3045296212	-0.6707413842	-0.1466207548	-0.287447
C	-1.0979225312	-1.9297339139	-0.9909627	 0.088475
C	 0.1412730963	-2.6699558522	-0.4804252496	-0.254816
C	 1.1834725099	-1.6872439056	-1.0148307409	 0.083356
C	 0.6597273568	-1.4352459732	-2.4321189965	-0.088341
O	-0.7627349694	-1.5738795922	-2.3408046533	-0.276672
O	 1.1739300614	-0.4756015068	-0.2387967862	-0.26892
H	 0.8844947652	 1.6668711101	 0.6364604949	 0.218228
H	-1.6929490234	-0.9452525557	 0.8414151075	 0.129469
H	-2.0434469558	-0.0123814475	-0.6080155116	 0.144857
H	-2.0078021493	-2.532759103	-1.029312599	 0.086632
H	 0.183065267	-2.7828949284	 0.6044888335	 0.117152
H	 0.2484010999	-3.6489398186	-0.9552744655	 0.114728
H	 2.2161627895	-2.0353731982	-0.9871278724	 0.095547
H	 0.9237599696	-0.4327397271	-2.7851142896	 0.119961
H	 1.0586667854	-2.1752021927	-3.1386893405	 0.104564
