17
gdb 10410	2.63642	1.96251	1.40716	3.6191	68.71	-0.2379	0.0248	0.2626	936.0282	0.143186	-360.013197	-360.005032	-360.004088	-360.045661	29.794	
C	-0.2599059783	 1.3778741503	 0.0037221189	-0.341634
N	 0.1084698419	-0.0354694303	 0.04318392	-0.321892
C	 0.865045388	-0.4476098942	 1.2118854751	 0.15353
C	 0.0890069437	-0.5254010063	 2.5820006098	-0.209271
N	-0.1926813228	-1.9470787234	 2.2841636195	-0.319273
C	 0.9313323555	-2.0016668738	 1.3240242869	-0.208728
C	 2.1472387028	 0.2548459425	 1.2647984597	 0.27955
N	 3.1613483828	 0.8040771312	 1.3403352664	-0.348467
H	 0.6452438732	 1.9881858156	-0.0690289045	 0.151579
H	-0.8590176114	 1.5586350755	-0.8922513938	 0.128968
H	-0.834821389	 1.7249756385	 0.8780217828	 0.104587
H	-0.7219588369	-0.6169946617	-0.0062962446	 0.238351
H	 0.7507610627	-0.3528486917	 3.4406033625	 0.111869
H	-0.796917171	 0.1111280443	 2.6740327898	 0.114696
H	-0.1227066195	-2.5786342018	 3.0736693005	 0.22864
H	 0.72656727	-2.5392442229	 0.392855198	 0.120601
H	 1.8868232585	-2.3428968217	 1.7412136131	 0.116892
