16
gdb 33578	2.27895	1.53117	1.20141	4.5837	72.92	-0.2717	-0.0149	0.2569	1075.1386	0.126004	-396.948378	-396.939868	-396.938924	-396.983075	30.229	
N	 0.6552935553	-0.9770011121	 0.2516514502	-0.328054
C	 0.3050413504	 0.1164218703	 0.1186486762	 0.270952
C	-0.046858248	 1.55808072	-0.0037609437	-0.017265
C	-0.7646705393	 2.0467904395	 1.2893274612	-0.221577
C	 0.402612119	 2.3950687612	 2.2420047756	-0.219032
C	 1.6600623336	 2.4772691567	 1.3393705546	-0.175399
N	 1.1255309332	 2.4269034791	-0.0315372621	-0.300888
C	-0.8715856302	 1.7485214418	-1.2089768859	 0.282396
N	-1.5271987098	 1.9070885827	-2.145691364	-0.321716
H	-1.341978574	 2.9342826355	 1.0252082571	 0.144237
H	-1.4475065759	 1.2926607766	 1.6812801194	 0.13976
H	 0.2079655948	 3.3391737805	 2.7534945486	 0.127213
H	 0.5302394892	 1.6276891962	 3.0076227917	 0.130102
H	 2.2199933386	 3.4064500789	 1.4721194792	 0.123725
H	 2.3375380052	 1.6398892564	 1.5564541239	 0.119038
H	 1.8089627379	 2.1357120167	-0.7216998619	 0.246508
