23
gdb 76789	1.88513	1.83734	1.16147	1.6203	85.15	-0.2534	0.0705	0.3239	1188.2306	0.203988	-388.27023	-388.260306	-388.259362	-388.304535	37.637	
C	-0.2288702163	 1.5439872724	-0.0222621871	-0.400522
C	-0.0276335605	 0.0313735414	 0.0023756918	-0.026363
C	 1.1434477279	-0.503320741	-0.9029872705	-0.06502
C	 1.6621067138	 0.3036584713	-2.0835807985	-0.412138
C	 1.9973014759	-0.5835411449	 0.3680750947	 0.425415
C	 3.3490064595	-1.0791353857	 0.6114256846	-0.278619
O	 3.0729946231	 0.3314648577	 0.572415883	-0.267365
C	 0.7483311106	-0.5208801306	 1.2553431085	-0.065029
C	 0.8127938485	 0.2658608213	 2.5556812051	-0.412134
H	 0.7047823557	 2.0870319304	 0.1532064307	 0.132417
H	-0.6241803796	 1.8687176198	-0.990359283	 0.112606
H	-0.9427358017	 1.8547216749	 0.7476519608	 0.112597
H	-0.9869881123	-0.4635343266	-0.1772569215	 0.059796
H	 0.8996665569	-1.5214955185	-1.2300766031	 0.075207
H	 1.9920615669	 1.2990144458	-1.7775119612	 0.131078
H	 2.519454555	-0.1970953906	-2.5462585808	 0.113774
H	 0.8910678363	 0.4149091407	-2.8532617948	 0.111787
H	 3.6188023292	-1.4713978861	 1.5918281551	 0.110334
H	 3.9496197296	-1.4566546373	-0.2159761053	 0.110332
H	 0.4073833212	-1.5433618994	 1.458754576	 0.075212
H	 1.2266529008	 1.2650672846	 2.4020964549	 0.131072
H	-0.1811964709	 0.3669349253	 3.0040727524	 0.111785
H	 1.4522816304	-0.2444776147	 3.2840251382	 0.113779
