23
gdb 93103	2.2348	1.71562	1.1539	0.2003	90.06	-0.2349	0.0336	0.2685	1165.014	0.207354	-351.165316	-351.156757	-351.155813	-351.197909	34.822	
C	-0.1591127499	 1.5482206421	-0.0670330846	-0.425724
C	 0.0453280265	 0.0330547663	 0.017067284	-0.051519
C	 0.7896570988	-0.4947440094	-1.2263760981	-0.237014
C	 1.1306062956	-1.9578170564	-1.1227985374	-0.062942
C	 1.0907905871	-2.6368233987	 0.0221925066	-0.044772
C	 0.7335918635	-2.0019662651	 1.3415208096	-0.330049
C	 0.757972707	-0.4797973243	 1.2711698691	 0.38918
C	 2.0062711265	 0.2061251483	 1.7757155544	-0.299026
C	 0.7278584792	 0.2618836292	 2.5818215566	-0.338798
H	 0.7911614759	 2.0928126511	-0.0466058724	 0.115855
H	-0.6590151571	 1.8063937384	-1.006551661	 0.112349
H	-0.783468806	 1.923050525	 0.7488089542	 0.1154
H	-0.9518470539	-0.4325740047	 0.0146049212	 0.072691
H	 0.177964416	-0.3197746174	-2.1216439225	 0.095474
H	 1.7086037238	 0.0918479618	-1.3816844998	 0.103121
H	 1.4146552621	-2.4642897735	-2.0425574928	 0.080096
H	 1.3211711507	-3.699701526	 0.0328153425	 0.080306
H	-0.2636341132	-2.3470979931	 1.6588982252	 0.103435
H	 1.4225203744	-2.3512780235	 2.1216868028	 0.096134
H	 2.8187674484	-0.416253989	 2.1360466656	 0.106707
H	 2.3358939361	 1.1199989126	 1.2933109536	 0.107271
H	 0.2114020863	 1.2128471055	 2.6435241184	 0.107792
H	 0.670014932	-0.327920269	 3.4914832248	 0.104032
