20
gdb 38492	3.00531	1.74397	1.57895	1.9654	80.86	-0.2124	0.0839	0.2963	949.5528	0.17431	-365.957944	-365.951085	-365.950141	-365.988682	29.391	
C	 0.0389627118	 1.4972265886	 0.0108684146	-0.29027
C	 1.3525551753	 0.7570108864	-0.0448321229	-0.020348
C	 2.0965047282	 0.5549416126	 1.293342161	-0.346469
C	 1.1757166042	-0.3772313287	 2.0619462874	 0.263641
C	 0.3519473553	-0.24923695	 3.3570885161	-0.270003
C	-0.9354052363	-0.6039386655	 2.5210596305	-0.274995
C	-0.0394253098	-0.7077773403	 1.2705378561	 0.261614
N	 0.9712517463	-1.7514815793	 1.5578078987	-0.407301
C	 0.022194404	-0.0113184075	-0.0455635231	-0.152572
H	-0.2359093522	 1.9834402642	 0.9425408385	 0.110318
H	-0.2768763717	 2.0328097747	-0.8779103262	 0.112686
H	 1.9351416077	 0.8323138531	-0.9567206357	 0.084167
H	 3.099484018	 0.138265156	 1.1386879199	 0.101418
H	 2.2297155606	 1.5044850477	 1.8252548275	 0.106016
H	 0.6239884946	-0.9358474724	 4.1621898647	 0.105146
H	 0.3271068969	 0.7726393747	 3.7444460551	 0.098224
H	-1.4644916717	-1.5186341355	 2.797436944	 0.10554
H	-1.6438265606	 0.2256295723	 2.4716771226	 0.102549
H	 1.5408658179	-1.8642412783	 0.720568046	 0.226049
H	-0.3363655887	-0.4877558029	-0.9535590547	 0.08459
