22
gdb 59438	2.62295	1.05803	0.93939	3.6531	84.03	-0.2387	-0.0166	0.2221	1407.872	0.19157	-404.351749	-404.341177	-404.340233	-404.387803	38.225	
C	-2.1786338999	 0.4639796345	 1.0696270252	-0.394152
C	-0.9328756752	-0.1136583349	 0.3820004265	 0.031911
C	-0.0536155922	 0.990298789	-0.2194430542	-0.393829
C	-0.1445366915	-0.9442923902	 1.3746695861	-0.000502
N	-0.6217934633	-2.2884517334	 1.6621753619	-0.319114
C	 0.6893363427	-2.1452019141	 0.9997677161	-0.156115
C	 0.8144185202	-2.6286484789	-0.418889483	 0.410419
C	 2.2294143818	-2.9603310643	-0.8614534101	-0.487984
O	-0.1326752328	-2.7306221363	-1.1650407504	-0.304218
H	-1.9042551243	 1.1415698164	 1.8880826081	 0.101968
H	-2.7865225858	 1.0333103726	 0.3592949017	 0.111822
H	-2.7985097333	-0.3367247673	 1.483274303	 0.127346
H	-1.258288902	-0.78614691	-0.4161626453	 0.120024
H	 0.3218547593	 1.6691735952	 0.5564330877	 0.105985
H	 0.8114091637	 0.5723329746	-0.7449350271	 0.109808
H	-0.6209042775	 1.5916575595	-0.9366348935	 0.116389
H	 0.2631672271	-0.3691408254	 2.2094384596	 0.08096
H	-0.4824377695	-2.5298875233	 2.6397276523	 0.235429
H	 1.5800061546	-2.3005813561	 1.6060040651	 0.082338
H	 2.620774824	-3.7993558164	-0.2736671967	 0.140145
H	 2.2347591731	-3.2225001685	-1.919723549	 0.14306
H	 2.8985832808	-2.1104285128	-0.6840010941	 0.138309
