17
gdb 52641	3.01642	0.62688	0.53357	4.1105	89.62	-0.2601	-0.0598	0.2003	2020.7234	0.131818	-384.645033	-384.634027	-384.633083	-384.684749	35.706	
C	-0.0348244902	 1.5091173634	 0.0753812979	-0.497495
C	-0.0279803566	 0.0545008153	 0.0193635305	 0.053663
C	-0.0140450228	-1.1475056706	-0.0294525761	 0.106174
C	-0.0264900217	-2.613386374	-0.0777326542	-0.341798
C	-1.4727273917	-3.1750802101	-0.1034842358	-0.378359
C	 0.7479308287	-3.1286519862	-1.2102131622	 0.17612
C	 1.3688368697	-3.5907813182	-2.1370149706	-0.024149
C	 2.1235425451	-4.0913854252	-3.2564179107	 0.024683
O	 2.2735450884	-5.2636136323	-3.5156630944	-0.23048
H	 0.5014481774	 1.9391588617	-0.7774213902	 0.153762
H	-1.0569230287	 1.902601636	 0.0579635061	 0.151577
H	 0.4467491009	 1.8736450733	 0.9891673426	 0.151893
H	 0.4558106271	-2.9940481523	 0.8352518196	 0.146448
H	-1.9948329229	-2.8357836847	-1.0005247401	 0.140908
H	-1.4524868583	-4.2674142755	-0.0977343692	 0.135002
H	-2.0167713914	-2.8190400011	 0.774264738	 0.132559
H	 2.5741274269	-3.2982963895	-3.8875279913	 0.099495
