15
gdb 54435	3.73223	1.16422	0.99524	2.2492	67.48	-0.2584	-0.0576	0.2007	1161.8113	0.109215	-457.755309	-457.746863	-457.745919	-457.789059	30.328	
C	 1.0338996869	 0.4944294044	 0.5085479539	-0.487989
C	-0.3419279219	 0.3011564377	-0.0876683771	 0.279598
O	-1.3671060166	 0.6294599088	 0.4661666769	-0.295657
C	-0.4121559721	-0.3229545145	-1.441556277	 0.318067
C	-1.6243506019	-0.4283133536	-2.3764510039	-0.41682
C	-1.0888154902	-1.8356789559	-2.7669145919	 0.429916
O	-1.5289029645	-2.7527588555	-3.3880991316	-0.283617
C	 0.1341382702	-1.6628706434	-1.8585335173	-0.173196
O	 0.7515449717	-0.4347020469	-2.2586285079	-0.261538
H	 1.6221439809	-0.4271553595	 0.4613791321	 0.144096
H	 1.5829986272	 1.24379501	-0.0717302587	 0.160311
H	 0.9343708748	 0.8276650606	 1.5417687826	 0.147763
H	-2.5811602709	-0.5064151539	-1.8550239508	 0.163299
H	-1.6779334014	 0.328945578	-3.160060106	 0.142948
H	 0.7408610877	-2.3865839563	-1.3255969634	 0.132819
