15
gdb 28540	3.18742	1.36344	0.9558	3.9539	73.98	-0.1855	-0.0063	0.1791	1144.6832	0.113794	-454.005099	-453.997053	-453.996109	-454.037119	31.434	
N	-0.0383922031	 1.4096941389	-0.0869009338	-0.570366
C	-0.0189432256	 0.0207547769	-0.0425488962	 0.29512
N	-1.1718441343	-0.6301589523	 0.043038864	-0.329561
C	-1.1803971908	-1.9675580383	 0.0196859185	-0.082805
C	-0.0226438077	-2.7267222265	-0.0806929791	 0.343573
O	-0.1305746832	-4.0897629981	-0.094279451	-0.447553
C	 1.2016698801	-2.0523430874	-0.1558396047	-0.369673
C	 1.2086858851	-0.6689877297	-0.138253342	 0.33299
O	 2.34152882	 0.0952794039	-0.1976276018	-0.455307
H	 0.7991266302	 1.8558196465	 0.2567742986	 0.254422
H	-0.8916177941	 1.7978874552	 0.2887662997	 0.250104
H	-2.1440554238	-2.4630129196	 0.0885751129	 0.108476
H	 0.7461939565	-4.478226811	-0.1699204912	 0.294556
H	 2.1374927494	-2.6037872875	-0.2270413659	 0.07799
H	 3.1149677813	-0.4764826909	-0.2345643281	 0.298036
