21
gdb 121010	3.20747	0.99803	0.80875	3.3152	85.4	-0.2332	-0.0435	0.1896	1471.9116	0.182617	-387.137928	-387.128661	-387.127716	-387.17291	34.089	
C	-0.1528441387	 1.6117398284	 0.0093115546	-0.382726
C	-0.0844702832	 0.082693068	-0.0117870528	-0.173839
C	 0.7466358097	-0.452467159	-1.1840591078	-0.177472
C	 0.8565380909	-1.9870825037	-1.2363797798	-0.108822
C	 1.4612350697	-2.5427988229	-2.5467429565	-0.298222
C	 2.5516183045	-3.4813584437	-2.0994069123	-0.04999
C	 2.7134629088	-3.4997337665	-0.771921541	-0.162487
C	 1.7509950981	-2.5793724916	-0.124711825	 0.37756
O	 1.6769888123	-2.331452487	 1.0589786617	-0.338627
H	 0.8452309432	 2.0513507147	 0.116729755	 0.113614
H	-0.588841373	 2.0065826572	-0.915897086	 0.107008
H	-0.7633857739	 1.9703287941	 0.843784408	 0.112248
H	 0.3351353479	-0.2928789253	 0.9252601638	 0.136312
H	-1.1006993436	-0.3291502723	-0.0809221181	 0.087321
H	 0.3043755371	-0.1057418574	-2.1280055501	 0.091261
H	 1.7574165136	-0.0223393151	-1.1476791622	 0.096393
H	-0.1452380017	-2.4107230526	-1.0862180989	 0.102226
H	 0.7221120076	-3.0568961157	-3.172720713	 0.118281
H	 1.8804693935	-1.7432577051	-3.1722411679	 0.120876
H	 3.1358811854	-4.0587339776	-2.8087901825	 0.114667
H	 3.4379835019	-4.0710544969	-0.2059009392	 0.11442
