17
gdb 23277	2.80728	1.482	1.1291	2.3559	71.61	-0.2419	-0.0073	0.2346	1079.6915	0.136748	-455.078512	-455.070494	-455.06955	-455.111165	31.143	
O	-0.1715985804	 1.3079877421	-0.4445658752	-0.407997
N	 0.0116328189	-0.0945777922	-0.3541331102	-0.244935
C	-1.0741647952	-0.6597079219	-0.0061937941	 0.44528
C	-1.1896325729	-2.1271161934	 0.1590910902	-0.161092
N	-1.5844572547	-2.4797727408	 1.5540908226	-0.32213
C	-2.608716664	-2.4259967915	 0.5021345077	-0.041911
C	-3.4181083565	-1.136145064	 0.5420052205	-0.237642
C	-2.418555656	 0.0168021887	 0.2653689322	 0.040886
O	-2.3741027237	 0.9101839312	 1.3613757758	-0.431496
H	 0.7054336109	 1.6144966885	-0.6969706253	 0.311248
H	-0.5449521291	-2.7959281537	-0.398285318	 0.101877
H	-1.3153331042	-3.4477118839	 1.7189186941	 0.236046
H	-3.0796755862	-3.3475272933	 0.1754644798	 0.091396
H	-4.2059347011	-1.1570957486	-0.2160105185	 0.103146
H	-3.8834298352	-0.9841892656	 1.5187185986	 0.132719
H	-2.7057839642	 0.5556747181	-0.6509045517	 0.089655
H	-1.6783141062	 1.5473365302	 1.1575370514	 0.29495
