16
gdb 112468	2.59368	1.5263	1.06804	3.4749	68.16	-0.2338	-0.0047	0.2291	1112.6963	0.124843	-475.066978	-475.058715	-475.057771	-475.100439	30.019	
C	-0.3784612575	 1.2089377434	 0.2575651989	-0.246116
O	-0.1930632596	-0.1986149909	 0.3508797808	-0.228769
C	 0.9528728986	-0.5796060698	 1.0428797219	 0.169372
O	 0.843920073	-0.2111198703	 2.4409897049	-0.26005
C	 0.2681362907	-1.0207393294	 3.3620763421	 0.471327
O	-0.121707971	-0.5989641267	 4.4185157903	-0.379191
N	 0.2269051562	-2.3584695858	 3.0185159001	-0.382391
C	 0.7600008573	-2.8640940102	 1.8425879412	 0.033956
C	 1.1597754282	-2.048150135	 0.8692306386	-0.166894
H	 0.4906613856	 1.6910648108	-0.2131680395	 0.110249
H	-1.2582837985	 1.367576255	-0.3683760162	 0.133098
H	-0.5438387951	 1.658132831	 1.2424450224	 0.141007
H	 1.8144718885	 0.013575832	 0.705085292	 0.089171
H	-0.1127792872	-2.9696028061	 3.7421379223	 0.271252
H	 0.8319113211	-3.9438249274	 1.7915411378	 0.129875
H	 1.5790996196	-2.4154856707	-0.0559098176	 0.114105
