21
gdb 91704	2.59231	1.68535	1.47396	1.3996	81.69	-0.2375	0.0184	0.2559	1022.005	0.18579	-387.114929	-387.107436	-387.106492	-387.146467	30.982	
C	-0.3869277964	 1.5274531296	-0.0146731057	-0.418156
C	 0.0011878966	 0.0509589504	-0.0046730382	 0.05393
C	 0.9279274546	-0.3956473779	-1.1709360928	-0.259162
C	 1.9195302153	-1.3860282588	-0.4964459088	 0.089037
C	 3.2911850086	-0.7504321698	-0.2113406254	-0.259454
C	 3.14975136	 0.3026776045	 0.8615376298	-0.06306
C	 2.0025439029	 0.4634294626	 1.5207726956	-0.057539
C	 0.8267868895	-0.4408974544	 1.2128754966	 0.015038
O	 1.3062841568	-1.7070859523	 0.7584010462	-0.261691
H	 0.5001498713	 2.1686067278	 0.0012067667	 0.120007
H	-0.9635776571	 1.7735095946	-0.9121963097	 0.115202
H	-1.0052644884	 1.7836847442	 0.8529950717	 0.110813
H	-0.9092182135	-0.5583622379	-0.0270185381	 0.076354
H	 0.3595623422	-0.8780033437	-1.9697779944	 0.102272
H	 1.4529555632	 0.4575431097	-1.6106308301	 0.099821
H	 2.0295366524	-2.3205314198	-1.0519276963	 0.073394
H	 4.0087186149	-1.519128882	 0.1070090601	 0.109938
H	 3.7011370085	-0.3117411108	-1.1309594587	 0.101746
H	 4.0159168469	 0.9195601546	 1.086959831	 0.088048
H	 1.8831558535	 1.2331739092	 2.2774337267	 0.088364
H	 0.215288258	-0.6186471399	 2.101949774	 0.075097
