11
gdb 3914	8.33522	1.99087	1.60703	4.6533	54.63	-0.2508	-0.0427	0.2081	693.134	0.080839	-339.467091	-339.461501	-339.460557	-339.496633	19.854	
O	-0.0799190783	-0.0378019062	 0.0005136545	-0.277055
C	-0.0183700841	 1.1718349787	 0.0092072271	 0.067935
C	 1.2222455034	 1.9367994658	 0.001833411	 0.118124
C	 1.3637340785	 3.3178937104	 0.0110140989	-0.104876
N	 2.68661156	 3.5612956356	-0.0015296954	-0.175125
N	 3.4419821003	 2.4347728642	-0.0183016667	-0.210949
C	 2.5582655992	 1.4510098489	-0.0160343393	-0.064762
H	-0.9433580092	 1.7919165876	 0.0237775436	 0.062739
H	 0.633112035	 4.1118605945	 0.0249740607	 0.155161
H	 3.1503694936	 4.4547110112	 0.0002213831	 0.284615
H	 2.8816182917	 0.4215187092	-0.0273302876	 0.144194
