19
gdb 73910	2.86823	1.37907	1.01844	1.009	92.39	-0.2089	-0.0106	0.1983	1197.5791	0.158792	-348.73758	-348.729021	-348.728077	-348.77038	33.411	
C	-0.0427006418	 1.5093623754	 0.1296533392	-0.519963
C	-0.025085039	 0.0189420636	 0.0400133795	 0.232416
C	-0.01120991	-0.7280718619	-1.0862341119	 0.082684
C	-0.0383666548	-2.2224443833	-0.7785735996	-0.335905
C	 0.0564359654	-2.2793618071	 0.7428956382	-0.045728
C	 1.274694733	-1.689767916	 1.3980768066	-0.279808
C	 0.0179242656	-0.8475580259	 1.2521307537	-0.114984
C	 0.0298137457	-0.2425395721	-2.4137396943	 0.20576
C	 0.0593551311	 0.1314953444	-3.5604587631	-0.434389
H	 0.8410515888	 1.8813735084	 0.6633695882	 0.130743
H	-0.0704869181	 1.967985946	-0.8611499304	 0.138694
H	-0.9164330942	 1.8556404625	 0.6966845263	 0.127599
H	-0.9690536165	-2.6750921264	-1.1434607851	 0.113635
H	 0.7824027198	-2.7540346422	-1.2746589351	 0.116453
H	-0.4719126979	-3.0658600446	 1.2681722799	 0.086876
H	 1.5209298608	-2.0472309335	 2.3926450422	 0.110534
H	 2.1308790053	-1.4295783935	 0.7833560276	 0.114816
H	-0.5218933124	-0.5513628198	 2.1454452772	 0.084881
H	 0.084382939	 0.469849896	-4.5662975894	 0.185687
