20
gdb 112576	3.13316	0.92541	0.84242	5.1456	79.95	-0.2756	0.0387	0.3144	1436.1306	0.169836	-403.154184	-403.144424	-403.14348	-403.189169	35.677	
C	-0.0312180787	 1.4744669993	 0.088531523	-0.450413
C	 0.0064304482	-0.0545299115	 0.0251463114	 0.140607
C	 1.0803522352	-0.7131113342	-0.9134203025	-0.287773
C	 1.4138678314	-1.7294832238	 0.2091586406	 0.054156
C	 2.8708761387	-2.0513733902	 0.4643036549	-0.098635
O	 2.9355953799	-2.8569842959	 1.6302897494	-0.420001
C	 0.6815200799	-0.812985188	 1.2231177966	-0.255745
C	-1.3279432376	-0.5829422846	-0.2530355831	 0.254909
N	-2.38469026	-0.9975973977	-0.4750941664	-0.348288
H	 0.9711090521	 1.8603182818	 0.2965190509	 0.118724
H	-0.3761646657	 1.9005685974	-0.8584610767	 0.13605
H	-0.7038529042	 1.818200582	 0.8800466269	 0.137614
H	 0.7316335448	-1.1009796195	-1.8715351287	 0.122751
H	 1.9002419842	-0.0096741244	-1.0903115317	 0.104292
H	 0.860891138	-2.662820468	 0.0692901746	 0.100846
H	 3.2956062604	-2.5705789055	-0.4107769482	 0.090434
H	 3.4369135326	-1.1128659567	 0.5944887525	 0.077936
H	 3.8576853467	-3.0656581067	 1.8060532917	 0.289834
H	 1.3739785102	-0.1471713127	 1.7470740389	 0.105736
H	 0.0199272838	-1.2818907211	 1.9515474859	 0.126968
