18
gdb 55832	3.76229	0.91611	0.81529	1.7686	74.56	-0.2514	-0.0222	0.2292	1413.9104	0.145827	-439.109104	-439.099918	-439.098974	-439.144537	32.778	
C	-0.0753325974	 1.0313973312	-0.7373314674	-0.481782
C	 0.1610827994	-0.060087977	 0.2819641744	 0.391741
O	 1.2413805437	-0.2804518215	 0.7769898205	-0.303589
C	-1.0445454062	-0.9395860622	 0.6357817995	-0.310756
C	-0.963461417	-2.2623994403	-0.1117475948	 0.139037
C	-2.1987578689	-3.1880624583	-0.1025415125	-0.388482
C	-2.2270068619	-2.9105906548	-1.5907050375	 0.442454
N	-2.9514838955	-3.272481249	-2.5455661928	-0.534584
O	-1.1214756662	-2.0792230849	-1.5644542448	-0.269782
H	 0.8569136906	 1.5507320113	-0.9613393874	 0.142397
H	-0.4931177768	 0.5856193279	-1.6472685578	 0.159375
H	-0.8183851242	 1.7449657496	-0.3621269968	 0.139121
H	-1.0055990757	-1.1499411296	 1.7095913051	 0.134612
H	-1.9921225321	-0.4438876361	 0.4014866559	 0.109015
H	-0.0104810593	-2.7578573996	 0.0909401161	 0.11809
H	-2.0172834178	-4.2294018269	 0.1669994215	 0.144176
H	-3.0647926836	-2.8142152845	 0.4470943932	 0.138839
H	-2.637565311	-2.8656339255	-3.4282579547	 0.230117
