15
gdb 11204	3.43855	1.81216	1.50604	4.244	62.69	-0.2569	-0.0389	0.2179	864.5879	0.119154	-399.827614	-399.820373	-399.819429	-399.859791	26.095	
N	 0.0620802281	 1.1584332907	 0.1773728981	-0.536713
C	 0.0802503404	-0.0769459117	-0.0633141657	 0.43135
C	-0.9073120773	-1.1042029986	 0.4472785664	-0.300446
C	-0.6988201585	-2.2963844764	-0.4968446962	-0.259965
C	 0.7836913691	-2.1035862512	-0.9027458849	 0.00341
O	 1.0135755576	-0.701959327	-0.8572952396	-0.222947
C	 1.6989258829	-2.8486540292	 0.060654282	 0.152381
O	 2.3231543609	-2.3307764412	 0.9456017411	-0.227015
H	 0.8529313097	 1.6259955722	-0.2687932636	 0.226989
H	-0.6446386624	-1.361293315	 1.4788209255	 0.149016
H	-1.9213483629	-0.7053193588	 0.4497208095	 0.142568
H	-0.8891885803	-3.2670347402	-0.0326899864	 0.121358
H	-1.3331963142	-2.2148655341	-1.3831758255	 0.128659
H	 0.9876613048	-2.4559648919	-1.9201454309	 0.110425
H	 1.7143259119	-3.9513159377	-0.1072774796	 0.080929
