17
gdb 93987	2.41987	1.42227	1.17227	2.1595	69.23	-0.2457	-0.0521	0.1936	1110.9345	0.13413	-458.991445	-458.982714	-458.981769	-459.025411	31.236	
C	-0.0580411423	 1.5934165629	 0.109748851	-0.408645
C	 0.206030944	 0.0963192871	-0.0261703117	-0.105618
C	 1.1996920252	-0.3489526856	-1.1069187369	-0.109155
O	 1.7086988731	-1.6141515169	-0.6612475458	-0.239728
C	 1.8517757557	-1.5618682753	 0.7318133224	-0.099535
C	 3.2450137515	-1.1214806354	 1.1889904662	 0.142829
O	 4.0901448468	-0.709590815	 0.4426406226	-0.229833
C	 0.8178849558	-0.5265197616	 1.2304030303	 0.360233
O	 0.5836231952	-0.2568407158	 2.3772057992	-0.308604
H	 0.8796427379	 2.1492428485	 0.2103632625	 0.129879
H	-0.5904448333	 1.9803209233	-0.7635503679	 0.124471
H	-0.6618331052	 1.7884459285	 0.9997149863	 0.144744
H	-0.7423838386	-0.4376764788	-0.1831244177	 0.119884
H	 0.7451841866	-0.5094093187	-2.086061374	 0.122473
H	 2.0198739704	 0.3746127501	-1.2106381917	 0.120655
H	 1.6392810509	-2.5434817723	 1.1746604938	 0.133246
H	 3.3967875262	-1.194677705	 2.2877238812	 0.102705
