11
gdb 132317	2.10033	1.96427	1.01501	6.1636	56.59	-0.2772	-0.0525	0.2247	1020.5663	0.065994	-530.054575	-530.04737	-530.046426	-530.086577	26.122	
N	 0.0140615011	 1.3113989573	 0.0075825383	-0.54993
C	-0.0403287672	-0.0227038824	 0.0010966958	 0.544312
N	-1.2041408949	-0.6407702352	 0.0038474741	-0.405911
C	-1.0798762091	-1.9720645877	-0.0038470556	 0.354335
F	-2.2270839707	-2.6069077094	-0.0008420894	-0.03419
N	-0.0187034119	-2.7220319689	-0.0130853901	-0.393077
C	 1.1853327805	-2.106258383	-0.015979824	 0.456472
O	 2.2819982787	-2.5575071155	-0.0240361612	-0.309668
O	 1.1347213041	-0.6196759342	-0.0081021786	-0.248347
H	 0.9020332996	 1.7824555	 0.0053873295	 0.291964
H	-0.8466714801	 1.8312657889	 0.0146725812	 0.294041
