19
gdb 81478	3.48365	1.55797	1.49747	1.6318	73.16	-0.2519	0.0649	0.3168	952.4329	0.162984	-422.962032	-422.955667	-422.954723	-422.992309	28.064	
O	 0.074115008	 1.4344220065	-0.0246301613	-0.46579
C	 0.0990954433	 0.0335990728	-0.0745639471	 0.18981
C	 0.174378818	-0.639076958	 1.3271110617	 0.027869
O	-1.2565430529	-0.3079176404	 1.4449206927	-0.317687
C	-1.3120083392	-0.6184789316	 0.0056311244	 0.027869
C	-1.2511141885	-2.1842649046	-0.1562163043	-0.054105
C	-1.1538007874	-2.761887403	 1.2911094442	-0.192432
C	 0.3037405087	-2.205810905	 1.2261367805	-0.054105
C	 0.2440053328	-2.6122262616	-0.2787941765	-0.226711
H	-0.5481210111	 1.6622290544	 0.6788000543	 0.285788
H	 0.7979168897	-0.2290664476	-0.8646864159	 0.083839
H	 0.7715096583	-0.1783013398	 2.116772559	 0.081311
H	-2.158853358	-0.1376962839	-0.4884806448	 0.081311
H	-1.9902142752	-2.5696430155	-0.8603434197	 0.064241
H	-1.8272437064	-2.3823687811	 2.0545057131	 0.116386
H	-1.1563247119	-3.8535064489	 1.2769346965	 0.092483
H	 1.0834142538	-2.6122354442	 1.8722855374	 0.064241
H	 0.3308323126	-3.6955004288	-0.3933410559	 0.09619
H	 0.8991866154	-2.1378757497	-1.0083405082	 0.099492
