20
gdb 81864	2.75849	1.4726	1.1104	3.6506	79.3	-0.234	0.0278	0.2618	1153.725	0.171406	-403.194868	-403.186171	-403.185227	-403.227761	33.885	
C	-0.1961499096	 1.5688151977	 0.0118866516	-0.390077
C	 0.0519389747	 0.061044597	-0.0591643081	-0.122533
C	 0.887482132	-0.4541464111	-1.2212449744	-0.086928
C	 2.3602988857	-0.0890439129	-1.2924910953	-0.335415
C	 1.9282555656	-1.3995140927	-0.6694032538	 0.339436
C	 2.2748936273	-2.738454036	-1.2659514487	-0.470524
N	 1.7452039542	-1.3588894686	 0.7604653876	-0.354177
C	 0.8055244442	-0.4508549655	 1.1872816344	 0.386582
O	 0.6177038645	-0.108084172	 2.3337536377	-0.379306
H	 0.7416813366	 2.1275212348	-0.066860931	 0.117142
H	-0.8548905214	 1.8978801285	-0.7969945941	 0.110615
H	-0.6590380685	 1.8194116641	 0.9698016823	 0.141407
H	-0.9195836919	-0.451352299	-0.0657980432	 0.103567
H	 0.3888585929	-0.6963592021	-2.1529756273	 0.091726
H	 2.8214522613	-0.1199046449	-2.2742399115	 0.114187
H	 2.7475101794	 0.6841348497	-0.6363299396	 0.117735
H	 2.3011024028	-2.676439524	-2.3575328195	 0.12368
H	 3.2617993093	-3.0810349919	-0.9325492479	 0.120084
H	 1.539245143	-3.4971418669	-0.9795984482	 0.127811
H	 2.4623346879	-1.6600557441	 1.404128879	 0.244989
