23
gdb 114237	2.94092	1.00074	0.87183	1.1972	86.76	-0.2458	0.0799	0.3256	1457.0447	0.204581	-388.266018	-388.256222	-388.255277	-388.301237	37.233	
C	 0.3770077498	 1.2055242664	 0.4893131267	-0.38108
C	 0.2387910469	-0.2389901571	 0.0002108694	-0.178312
C	 0.5214330381	-0.4020308836	-1.492060363	 0.049292
C	 2.0293796713	-0.2952781728	-1.8973593711	-0.310997
C	 2.0293800916	-1.8056265973	-2.1533655024	 0.369666
C	 2.9376914873	-2.5903295426	-3.0652693865	-0.404298
C	 3.0211684894	-2.756865448	-1.5654406889	 0.047285
O	 4.0872072391	-2.1886641237	-0.860817594	-0.420529
C	 0.5063203203	-1.8792544557	-2.0018000984	-0.337257
H	 1.3855649789	 1.5923771484	 0.3083737763	 0.119464
H	-0.3280044905	 1.8663052326	-0.0278206148	 0.110686
H	 0.1803375253	 1.2834450801	 1.5631992147	 0.10989
H	 0.9203189938	-0.8877021155	 0.567110885	 0.101131
H	-0.7759260325	-0.6024792493	 0.2114322733	 0.089538
H	-0.1348055124	 0.2648924136	-2.0606229666	 0.059931
H	 2.2004016674	 0.3028299348	-2.7973177218	 0.092084
H	 2.7163950988	 0.043044787	-1.1172556501	 0.114187
H	 2.5191839729	-3.4005724008	-3.6552692757	 0.106955
H	 3.7451026718	-2.0441743201	-3.5445459198	 0.10962
H	 2.633534648	-3.6843754085	-1.1398702295	 0.079393
H	 4.8831534511	-2.6886680624	-1.0688345056	 0.287168
H	 0.1247286607	-2.6234116353	-1.294238516	 0.092096
H	-0.0195840272	-2.0049666804	-2.9534303612	 0.09409
