20
gdb 115250	3.28478	0.92108	0.7498	4.7022	89.3	-0.258	-0.0391	0.2188	1527.5409	0.171893	-366.056516	-366.047447	-366.046502	-366.090788	33.452	
C	 0.0128636617	 1.5738657636	 0.1655483383	-0.390998
C	 0.0146536385	 0.048087854	 0.0344615292	-0.183619
C	 0.6516504827	-0.4722368772	-1.2652708771	-0.006835
C	 0.7798812517	-2.0191464927	-1.3214511788	-0.242607
C	 0.5662770762	-2.4170810109	-2.8008241044	-0.318758
C	-0.1753977082	-1.2129557351	-3.3572359726	 0.195187
C	-0.119539416	-0.1633237637	-2.5262280755	-0.152362
C	-0.7992478562	-1.221499672	-4.6344695484	 0.198991
N	-1.3012451893	-1.2622098041	-5.6780718065	-0.337595
H	 1.0307593436	 1.9764262999	 0.1174791955	 0.118428
H	-0.5697300472	 2.05133607	-0.6292150347	 0.121079
H	-0.422050913	 1.8842917241	 1.1202452439	 0.119722
H	 0.563046244	-0.386813	 0.8795772935	 0.102371
H	-1.0112079122	-0.3357074625	 0.1048128855	 0.101541
H	 1.6482739291	-0.0094856995	-1.3540847581	 0.089325
H	 1.7323569052	-2.3750989781	-0.9219729263	 0.107194
H	-0.0150613725	-2.4595905037	-0.7094799365	 0.11105
H	 1.5148622796	-2.5528565592	-3.3358102688	 0.124195
H	 0.0039513154	-3.347929113	-2.9185719432	 0.124708
H	-0.546835543	 0.8085660501	-2.7428530249	 0.118985
