16
gdb 13694	5.13262	1.00522	0.91314	2.56	62.	-0.2411	-0.0353	0.2058	1232.3498	0.127097	-420.841227	-420.832556	-420.831612	-420.875732	30.052	
O	-0.3470299723	 1.2577814459	-0.3823278763	-0.427505
C	-0.1545425836	-0.0899080163	-0.0784772942	 0.122602
C	-0.3287639543	-0.590239177	 1.3393195132	-0.365659
C	-1.3563674003	-0.9242447343	 0.2906941341	 0.078051
O	-2.5682544403	-0.226620815	 0.3955041381	-0.267293
C	-3.2975407256	-0.2097820504	-0.8193164305	-0.162376
C	-4.6036709608	 0.523669041	-0.57083945	 0.138267
O	-5.4170763102	 0.739600168	-1.4282635106	-0.232696
H	-1.1860513965	 1.5155295181	 0.0198895551	 0.28758
H	 0.6275906648	-0.5175539375	-0.6960579091	 0.111732
H	 0.3077786217	-1.3867601599	 1.708488637	 0.122069
H	-0.6226674857	 0.1427272972	 2.083824744	 0.128303
H	-1.4582809194	-1.9498342764	-0.0632865619	 0.093633
H	-2.7409805945	 0.2893843359	-1.6254316169	 0.143554
H	-3.5281456549	-1.2316703557	-1.160794318	 0.131492
H	-4.7440318581	 0.8420943265	 0.4859441661	 0.098245
