21
gdb 74283	2.51806	1.34771	1.0811	2.1209	81.56	-0.2383	0.0155	0.2538	1227.0473	0.181554	-424.242027	-424.232685	-424.231741	-424.275495	36.086	
C	 0.0542584327	 1.531057548	 0.0341383286	-0.477439
C	-0.0503887411	 0.0329765077	-0.0116635937	 0.261043
C	-1.1993276706	-0.6375832523	 0.0920440003	-0.18811
C	-1.2730580838	-2.1502449973	 0.0574335776	 0.33168
C	-2.298037874	-2.6922166877	 1.0485426529	-0.421087
O	-1.7074621163	-2.5865187606	-1.2381398938	-0.469644
C	 0.1263707172	-2.7116400206	 0.3375359928	-0.125375
O	 1.0732201087	-2.0838055779	-0.5144885948	-0.259872
C	 1.2486535982	-0.7201504963	-0.1809612184	-0.16194
H	 0.715925971	 1.8583411368	 0.8467665693	 0.126708
H	 0.4812021029	 1.9300404158	-0.89493963	 0.126776
H	-0.9235279136	 1.9943691611	 0.187563683	 0.128172
H	-2.1436816754	-0.103698125	 0.1776671485	 0.080262
H	-3.2935427537	-2.3163126275	 0.7954311738	 0.125872
H	-2.3277040502	-3.7851730409	 1.0045254224	 0.121623
H	-2.0583839668	-2.3837927251	 2.0701569901	 0.115563
H	-1.0138023535	-2.315216056	-1.8518091515	 0.276892
H	 0.4029876896	-2.571177787	 1.3950900876	 0.084195
H	 0.1518009344	-3.7786766921	 0.100863102	 0.111409
H	 1.8402565701	-0.2792498221	-0.9923637685	 0.115002
H	 1.8542546844	-0.626258151	 0.740719912	 0.098269
