17
gdb 43934	3.72127	1.49006	1.3091	2.5464	72.18	-0.2382	0.0091	0.2473	974.9859	0.139337	-417.947479	-417.941001	-417.940056	-417.978189	26.988	
O	-0.0995376907	-0.0177760337	-0.3150542312	-0.326354
C	-0.0637138933	 1.1535939985	-0.0828395734	 0.339559
N	-1.0880531781	 2.1219745844	 0.0599153308	-0.455209
C	-0.1734048267	 3.0364971726	 0.7454610273	 0.338843
C	 0.4126668708	 4.4706831458	 0.8206449705	-0.250554
N	 1.3515669167	 3.8313950792	 1.8618370589	-0.123395
C	 0.157223004	 2.9876547031	 2.2477627617	-0.217946
C	 2.1116259792	 2.7704575334	 1.0870684986	-0.223385
C	 1.0019592836	 2.2841476625	 0.1171181124	-0.141094
H	-2.0386342123	 1.9089977318	 0.3341576968	 0.24676
H	 0.8975219999	 4.888198459	-0.064554473	 0.113727
H	-0.1952851939	 5.2222399698	 1.3266021986	 0.116955
H	-0.5320785653	 3.558762014	 2.87436697	 0.107224
H	 0.3927350579	 2.0260725403	 2.7133189354	 0.112318
H	 2.9521193291	 3.2189686219	 0.554008048	 0.115562
H	 2.4981398021	 2.0353648233	 1.7947030112	 0.128557
H	 1.197236537	 2.6559387642	-0.8942573925	 0.118432
