22
gdb 82448	2.34608	1.71624	1.32059	1.6911	85.67	-0.2322	0.0854	0.3176	1104.1536	0.19351	-367.177582	-367.168425	-367.167481	-367.21078	35.417	
C	 0.0161546545	 1.6608238495	-0.1072191594	-0.432939
C	 0.1181932486	 0.1485663688	 0.0427607591	-0.009004
C	 1.1223969605	-0.694596827	-0.7701684041	-0.030174
C	 2.525380539	-0.1569313247	-0.4536513281	-0.291802
C	 2.2515993656	-0.6895231168	 0.9459378276	 0.294789
C	 3.2965429446	-1.0407504883	 1.9619673557	-0.500099
N	 1.2404153739	-1.6907837583	 0.4286145934	-0.243252
C	 0.7869533194	-0.5058126961	 1.2489537203	 0.280488
C	 0.1747160755	-0.6496117405	 2.6105081173	-0.507231
H	 0.9826980525	 2.1550625757	 0.0269237054	 0.117473
H	-0.3664906527	 1.9323181893	-1.0974984431	 0.116361
H	-0.6731744918	 2.0776213295	 0.6353129205	 0.117584
H	-0.8744797236	-0.3062149012	-0.0666537634	 0.07706
H	 0.8700444328	-1.0768805915	-1.7579016034	 0.074146
H	 3.297080982	-0.762366002	-0.9389086134	 0.104102
H	 2.7451913032	 0.9044795472	-0.6090366665	 0.090554
H	 3.7389108149	-0.1354768658	 2.3943350495	 0.119054
H	 2.884819146	-1.6386417138	 2.7787620942	 0.127787
H	 4.1017596284	-1.6209582856	 1.4987341581	 0.123719
H	 0.1872573857	 0.305284242	 3.1488971795	 0.119542
H	-0.8672765965	-0.9773095087	 2.5281679488	 0.123185
H	 0.7053908674	-1.3865382915	 3.218503482	 0.128656
