23
gdb 114889	2.95473	1.20109	1.08179	1.4516	84.68	-0.2477	0.0777	0.3253	1264.0806	0.208029	-388.292248	-388.283696	-388.282751	-388.325739	33.352	
C	 0.0495093735	 1.4821626256	-0.2845092253	-0.385878
C	 0.0177259621	-0.0424969793	-0.133762266	-0.198708
C	-1.3910555521	-0.5799510527	 0.0982362846	 0.056375
C	-2.3818302021	-0.5290688293	-1.1039178596	-0.246566
C	-2.6769445327	-2.0458797276	-0.9426294991	-0.024669
C	-2.1035321818	-2.948318069	-2.0364183171	-0.093262
O	-0.696781812	-2.969411037	-1.8129753358	-0.2502
C	-0.5274315124	-3.0370030852	-0.3997274356	-0.094385
C	-1.6043283305	-2.1265182303	 0.2006129048	-0.073883
H	 1.0661543727	 1.8436158041	-0.4674233557	 0.111013
H	-0.5747613944	 1.8108239897	-1.1225003665	 0.118536
H	-0.3239184375	 1.977596526	 0.6188758597	 0.110925
H	 0.4369136517	-0.5095129195	-1.0335222021	 0.112857
H	 0.6652819172	-0.3395309016	 0.7023722592	 0.089531
H	-1.819213014	-0.0861532791	 0.9779632307	 0.062979
H	-3.2438418664	 0.1300627756	-0.977367561	 0.094598
H	-1.8996384426	-0.2846733162	-2.0561952563	 0.098991
H	-3.7051144948	-2.2986256607	-0.6790904457	 0.067137
H	-2.5204125822	-3.9665728863	-1.9577437083	 0.083102
H	-2.2740298573	-2.5798311964	-3.0524032732	 0.105325
H	-0.6746168664	-4.0710710148	-0.0461606057	 0.083056
H	 0.5000143895	-2.7407294218	-0.1741755412	 0.10826
H	-1.9342409975	-2.4803085141	 1.1793368751	 0.064866
