18
gdb 111646	2.63973	1.46042	1.31181	2.0593	70.86	-0.2546	0.0211	0.2757	1045.3505	0.149626	-439.069084	-439.061112	-439.060168	-439.102149	30.103	
O	 0.1463398601	 1.1328416301	 0.6245659865	-0.422854
C	 0.0550220428	-0.0452107905	-0.1624810806	-0.091639
C	-1.3561136756	-0.5960193961	-0.1926812477	-0.080544
C	-1.6626430195	-2.0877318597	-0.2094395686	-0.122215
C	-0.5764426844	-3.1503918014	-0.1196442541	-0.183632
N	 0.0950745331	-3.2799735836	 1.1686808178	-0.254666
C	-0.194307403	-2.4962426316	 2.1117283015	 0.118164
O	-1.0776277234	-1.4577335075	 2.1465756661	-0.229786
C	-1.9210784947	-1.2770333198	 1.0256883453	 0.07315
H	-0.085407533	 0.8816540936	 1.5254340355	 0.28851
H	 0.3591921346	 0.2449187196	-1.1731823613	 0.113902
H	 0.767261105	-0.8081118313	 0.1793223657	 0.107795
H	-2.062321137	 0.0343874715	-0.7260100072	 0.099266
H	-2.5373853894	-2.3831612944	-0.7799028511	 0.098733
H	-1.0262582817	-4.1247188477	-0.3426889246	 0.123805
H	 0.1976053362	-3.0023526319	-0.8834501011	 0.120992
H	 0.2991391114	-2.5764337131	 3.0779892699	 0.128804
H	-2.9303961116	-1.0616620564	 1.3561049179	 0.112216
