23
gdb 104986	2.39533	1.27646	1.10752	1.8349	80.68	-0.2573	0.0781	0.3354	1265.3915	0.202914	-425.419834	-425.409428	-425.408484	-425.454455	40.039	
C	 0.023706025	 1.6087619822	 0.1417216874	-0.403026
C	-0.0465714831	 0.0815236764	 0.2250060017	-0.261694
C	-1.4344813526	-0.5201326254	 0.0568073336	 0.376726
C	-2.6496672745	 0.284439242	 0.2471265145	-0.234451
O	-2.1766346162	-0.0263583817	-1.0782710222	-0.303109
C	-1.5665845211	-2.0552355519	 0.2132453288	 0.291595
C	-0.5263307183	-2.7900920895	-0.6506071447	-0.427288
C	-1.4559795075	-2.4681085695	 1.6831653051	-0.401683
O	-2.8701879078	-2.4464183377	-0.2071585565	-0.469008
H	 1.066189054	 1.9384328802	 0.116645818	 0.114493
H	-0.467796137	 1.9676172225	-0.7668438744	 0.138673
H	-0.4511843658	 2.0878585641	 1.0032290327	 0.117441
H	 0.596797589	-0.3452406728	-0.5527271027	 0.115417
H	 0.3673021011	-0.2589684941	 1.1815925786	 0.107148
H	-3.572612583	-0.2152216259	 0.5275476957	 0.126506
H	-2.5757471657	 1.3335589388	 0.5199171581	 0.11466
H	 0.4966603077	-2.6393742877	-0.2941561225	 0.111971
H	-0.7440325117	-3.8610215123	-0.6294478521	 0.122375
H	-0.5810188442	-2.451427061	-1.6907752282	 0.119231
H	-2.2027158483	-1.9440149061	 2.2857987008	 0.119418
H	-1.638991472	-3.5425862222	 1.7731966482	 0.125921
H	-0.4634516232	-2.2553616188	 2.0891420752	 0.113223
H	-3.0367203845	-1.9554439197	-1.0243955451	 0.28546
