21
gdb 83743	2.65038	1.53215	1.32238	2.523	82.21	-0.2141	0.0754	0.2894	1079.4575	0.184378	-383.220725	-383.212399	-383.211455	-383.253688	32.441	
C	-0.0635793523	 1.6351707656	-0.2738354166	-0.317547
N	 0.0650386894	 0.2108529557	-0.0179284458	-0.091752
C	 1.2902039265	-0.5464539397	-0.2057437939	-0.037603
C	 2.6402775935	 0.165221854	-0.274993725	-0.236749
C	 2.774769663	 0.9866039416	 1.0338458303	-0.332801
C	 1.670750272	 0.4752168272	 1.970243265	 0.372569
C	 1.9509287493	 0.1343245816	 3.3888781549	-0.299154
N	 1.1298871163	 1.3136221519	 3.0552175735	-0.361764
C	 0.7048733157	-0.3508112518	 1.1608605428	-0.096738
H	 0.8460417532	 2.2356974157	-0.1378596722	 0.098851
H	-0.4001602562	 1.7719641295	-1.3070248094	 0.119742
H	-0.8337129955	 2.039608893	 0.3892335635	 0.135527
H	 1.1814842795	-1.4727959298	-0.7656648865	 0.085366
H	 3.426039203	-0.5947227762	-0.3390085627	 0.107639
H	 2.7370889985	 0.7923272392	-1.1680822168	 0.105204
H	 3.766845635	 0.8735424223	 1.4814144843	 0.103868
H	 2.6391223987	 2.0564711529	 0.8412075774	 0.111253
H	 1.4110487995	-0.673421458	 3.8772660684	 0.116829
H	 2.9632683045	 0.2864087116	 3.7557235553	 0.106344
H	 1.691087003	 2.1579064425	 3.1468382112	 0.225961
H	 0.1299157134	-1.1096960788	 1.6862746224	 0.084954
