18
gdb 121454	5.34161	0.7749	0.69931	3.5791	77.7	-0.2351	-0.0146	0.2205	1571.5776	0.148568	-435.280554	-435.271716	-435.270772	-435.315258	31.857	
O	-0.5644245861	 1.5727033151	 0.2727871827	-0.421383
C	 0.0508165798	 0.3035563578	 0.2563381993	-0.048619
C	-0.9275741507	-0.7664683884	-0.2319343551	-0.171844
N	-1.4483928652	-0.3454446686	-1.5262763108	-0.359234
C	-2.1868682588	-1.138952647	-2.1817738701	 0.423006
C	-2.8262968688	-0.8963772476	-3.5452128881	-0.260199
N	-3.5912205719	-2.1099476151	-3.8707599116	-0.240032
C	-3.4200782489	-2.9005757885	-2.8856775513	 0.072037
N	-2.6113644708	-2.4287178339	-1.8571366998	-0.354466
H	-0.9990581816	 1.6453661362	-0.5882338485	 0.288418
H	 0.9407927181	 0.2949270336	-0.3943223578	 0.085203
H	 0.3795653295	 0.0838803829	 1.2777506299	 0.098231
H	-0.4167642855	-1.7427648881	-0.2870770138	 0.082825
H	-1.7472196285	-0.8589828266	 0.4983144852	 0.101686
H	-3.4859574943	-0.022292491	-3.5263856828	 0.148155
H	-2.0665140306	-0.7069900821	-4.3109931583	 0.148878
H	-3.8556736737	-3.8917741537	-2.8103106858	 0.138722
H	-2.4103467721	-2.910574755	-0.9983798236	 0.268617
