19
gdb 12112	4.35621	1.28569	1.20839	2.4724	72.29	-0.2348	0.0798	0.3146	1077.118	0.164844	-365.011379	-365.00324	-365.002296	-365.04404	31.143	
O	-0.0745599892	 1.3820357254	-0.0249745978	-0.475056
C	 0.0081917557	-0.0147492199	-0.0429697757	 0.454088
C	 1.0455353275	-0.5193749077	-1.0216272654	-0.217646
N	 2.3268189983	 0.1185913193	-0.7147807237	-0.08075
C	 3.2744188574	-0.6405696582	 0.0955895595	-0.215381
C	 3.513612986	-0.4283061902	-1.3591175617	-0.222625
C	-0.245444811	-0.7533081663	 1.2526051425	-0.317831
C	-1.2859279551	-0.7348168736	 0.1448714261	-0.319982
H	 0.8439005367	 1.6870532604	-0.0272297255	 0.283928
H	 1.1028011264	-1.6207999857	-0.9991737517	 0.080511
H	 0.7618378446	-0.2156135278	-2.036667778	 0.111337
H	 3.8305930902	-0.0724915627	 0.8353759198	 0.120382
H	 2.9834135822	-1.6401922203	 0.4128020035	 0.113933
H	 3.3832320383	-1.2874550739	-2.0149780605	 0.112919
H	 4.2463954413	 0.2974770328	-1.7001303982	 0.120487
H	 0.2798420504	-1.6821124589	 1.4496760243	 0.101971
H	-0.4420489224	-0.1422321908	 2.1257448419	 0.117085
H	-2.1617948985	-0.1137317802	 0.2934915417	 0.124687
H	-1.4644801091	-1.6464794218	-0.4158314411	 0.107942
