16
gdb 45455	2.94066	1.61855	1.123	5.9012	70.5	-0.2329	-0.0654	0.1675	1043.2966	0.12574	-437.914655	-437.907272	-437.906328	-437.946976	27.748	
O	-0.0329732653	 0.0865850247	-0.7863129057	-0.273143
C	-0.0285613705	 1.1605620054	-0.2568328331	 0.310246
C	-1.2229037629	 1.9207403593	 0.3375242953	-0.374418
C	-0.6878989153	 3.3479320208	 0.5163913637	 0.030515
C	-0.4054572412	 3.9994047856	 1.9026617765	-0.254941
C	 1.0885756279	 4.1161536972	 1.4681881282	-0.181562
N	 0.7754619445	 3.2761563501	 0.2907566447	-0.086541
C	 1.2414929935	 2.0134024729	 0.0435570403	 0.268473
O	 2.3748178249	 1.602914952	 0.1262806687	-0.342091
H	-2.1042163186	 1.8367685223	-0.3008778165	 0.144144
H	-1.466810683	 1.4582522169	 1.3017948386	 0.146847
H	-1.1652687723	 4.0446254863	-0.1805533264	 0.100425
H	-0.9301598734	 4.9311604168	 2.1177115225	 0.120044
H	-0.5466391062	 3.3040449384	 2.7338342054	 0.12108
H	 1.4045574426	 5.1249816614	 1.1893819739	 0.128433
H	 1.8423919852	 3.6677288701	 2.1195110139	 0.142489
