18
gdb 68450	2.85442	1.72725	1.30925	1.506	71.76	-0.2418	0.0281	0.2699	980.3314	0.149116	-439.080884	-439.073422	-439.072478	-439.112296	30.16	
O	-0.2461280646	 1.4140084779	-0.1425843426	-0.474411
C	 0.0295148575	 0.0444631745	 0.0382923926	 0.371666
C	 0.2039635085	-0.4884239826	 1.4922389413	-0.311563
C	-0.6761731798	-1.6938225353	 1.078883826	 0.116267
C	-1.2234984439	-0.8486580641	-0.097548401	-0.28313
O	 0.0628712509	-2.846516933	 0.6802307601	-0.23374
C	 1.072526954	-2.7525691136	-0.2238188819	 0.12631
N	 1.5688821184	-1.8007967768	-0.8863566886	-0.26702
C	 1.165646104	-0.4124153588	-0.8828624334	-0.213864
H	 0.5799619469	 1.9052436502	-0.0700489743	 0.278517
H	 1.2103311224	-0.7041982348	 1.8596427774	 0.108451
H	-0.3237752079	 0.1533860084	 2.2016241614	 0.112919
H	-1.3923999087	-2.0730572745	 1.8067301556	 0.09484
H	-2.1181821827	-0.2980390446	 0.2017988574	 0.118505
H	-1.4009550075	-1.3566707103	-1.0480490217	 0.113694
H	 1.4913518167	-3.7512043293	-0.3490804403	 0.121574
H	 0.8926781168	-0.1410756939	-1.9117381131	 0.122569
H	 2.0631841793	 0.1815001907	-0.6460078646	 0.098414
