14
gdb 30545	5.7511	1.0002	0.85202	4.9715	78.78	-0.2449	-0.0468	0.1981	1266.5602	0.103862	-429.111485	-429.103712	-429.102768	-429.145323	27.232	
N	-0.0427580327	 1.3389635243	 0.0104791518	-0.485711
C	-0.0503816518	-0.0028755906	 0.0032507428	 0.157414
N	-1.160409517	-0.6615209137	 0.0087915602	-0.349557
C	-1.087261319	-2.0394034782	 0.001150584	 0.442864
N	 0.1064012227	-2.6722768756	-0.0091193349	-0.309577
C	 0.0466480495	-3.9950378275	-0.0152607777	 0.079083
N	-1.0616749821	-4.7399510465	-0.0121220347	-0.258976
C	-2.1802870151	-4.00876722	-0.0016641087	 0.079142
N	-2.2674527727	-2.6848612344	 0.0053079779	-0.292133
H	 0.8159154607	 1.8583994059	 0.0059693623	 0.275304
H	-0.9195596759	 1.8359025497	 0.020429379	 0.277453
H	 0.9326648155	-0.4798024937	-0.0074539714	 0.141444
H	 0.9960559338	-4.5286815431	-0.0237059199	 0.119921
H	-3.120744356	-4.5573306666	 0.0014261192	 0.12333
