19
gdb 53186	3.26994	0.97262	0.90123	1.3047	86.2	-0.2186	0.0556	0.2742	1413.2639	0.157085	-385.829998	-385.820436	-385.819491	-385.865624	34.263	
C	-0.0593757212	 1.4949275036	-0.0001622427	-0.500481
C	-0.0458878804	 0.039380215	-0.0033043465	 0.099776
C	-0.0399541815	-1.1657565701	-0.0147544319	 0.081355
C	-0.0365389051	-2.5997978702	-0.0277090499	-0.301985
C	-0.321989847	-3.4587762962	 1.2102626723	-0.197126
C	-1.4564803735	-2.8187981179	 1.9965283306	-0.10081
O	-2.3022863467	-2.7840123452	 0.8132302715	-0.31561
C	-1.2930668386	-3.4514949292	 0.0536358887	 0.458047
C	-1.7396993247	-4.4448669487	-0.9676135324	-0.487696
H	 0.5550386177	 1.9031746896	 0.8103861621	 0.144053
H	 0.3284579763	 1.8969405246	-0.9429637412	 0.146598
H	-1.0767513236	 1.8810959232	 0.1284278643	 0.149667
H	 0.7235949694	-3.0566883553	-0.6589067469	 0.107483
H	 0.3713222192	-4.2097402035	 1.5653672554	 0.099755
H	-1.8902534084	-3.4772226943	 2.7566618283	 0.108291
H	-1.2829529985	-1.8198449822	 2.4100820967	 0.115941
H	-2.3182623834	-3.9463992646	-1.7532654817	 0.138484
H	-0.8790713212	-4.9305851185	-1.435896966	 0.12482
H	-2.3734371889	-5.2128819704	-0.5132092605	 0.129436
