21
gdb 102753	2.06744	1.16559	0.82031	3.1013	80.99	-0.2448	0.0264	0.2712	1445.6194	0.182702	-420.402482	-420.392655	-420.391711	-420.438265	35.187	
C	 0.4071082798	 1.2508145644	 0.2861456771	-0.377597
C	 0.0292816545	-0.1759551929	-0.1276729306	-0.173456
N	 0.611503014	-0.5956022233	-1.3968320784	-0.040159
C	 2.035309951	-0.9051420513	-1.4830241481	-0.209497
C	 2.4340588975	-2.112408937	-0.66267875	 0.025803
C	 3.8415314901	-2.284211584	-0.2334039724	-0.245367
N	 2.7963438943	-1.9871721865	 0.763093349	-0.31709
C	-0.1583206515	-0.6966989062	-2.5203896736	 0.151728
O	 0.2330744332	-1.0181905091	-3.6231208994	-0.343864
H	 1.487117143	 1.3653075921	 0.4213012315	 0.119397
H	 0.0842036832	 1.9735879832	-0.4689882181	 0.129276
H	-0.0728737616	 1.5053243117	 1.2360983935	 0.125321
H	 0.3214709564	-0.8873074645	 0.6526508855	 0.137289
H	-1.0584944178	-0.250445743	-0.2278404365	 0.119658
H	 2.2335570393	-1.0848286514	-2.5428348666	 0.157466
H	 2.6331382236	-0.0366508663	-1.1718055445	 0.096873
H	 1.8513454557	-3.0057324306	-0.8774695253	 0.106438
H	 4.2731278131	-3.2782752136	-0.1669445632	 0.125383
H	 4.5508011025	-1.5009342027	-0.4908647256	 0.113569
H	 2.8515638716	-1.0030367218	 1.017907594	 0.225996
H	-1.2176233519	-0.4479761971	-2.3114757985	 0.072833
