19
gdb 96860	2.26063	1.42457	0.93942	3.8417	82.16	-0.2457	-0.021	0.2247	1277.4782	0.158117	-419.229955	-419.22048	-419.219536	-419.26456	33.97	
C	 0.1767428956	 1.488655768	-0.615897766	-0.367101
N	 0.1401683881	 0.1037387724	-0.1826362259	-0.307857
C	-0.8996834093	-0.5240004933	 0.1079353019	 0.427058
C	-1.1023673211	-1.9574634096	 0.5789963862	-0.358729
C	-2.6283998584	-1.6643161776	 0.6337205547	 0.043927
C	-3.2944921308	-1.7478888532	 1.998541542	-0.401921
N	-2.3250611116	-0.2873246078	 0.1627570971	-0.135077
C	-3.2213693124	 0.6870471742	-0.1792685618	 0.149959
O	-2.9780753551	 1.7949158637	-0.6020254438	-0.302655
H	 0.6688654463	 1.5312304262	-1.5945305385	 0.125588
H	-0.8025974213	 1.9701716104	-0.6817276367	 0.165197
H	 0.8169980541	 2.0484167409	 0.0759118397	 0.124271
H	-0.7961311669	-2.7133827725	-0.1460210904	 0.134411
H	-0.6452880574	-2.1791844244	 1.5458328612	 0.131742
H	-3.2016354969	-2.2240163993	-0.1128733714	 0.097514
H	-2.7232446399	-1.1865965973	 2.7445452267	 0.130946
H	-4.3130346434	-1.3480276938	 1.9748608243	 0.127908
H	-3.3533524646	-2.7923592045	 2.3216409113	 0.13018
H	-4.258155605	 0.3296681473	-0.0177506007	 0.084642
