17
gdb 3347	5.32607	2.62655	1.94183	0.3901	70.63	-0.2207	0.0257	0.2464	697.5146	0.150774	-272.569586	-272.563644	-272.5627	-272.599063	23.76	
C	 0.0268787033	 1.5805937076	-0.0530773314	-0.239382
C	 1.5894520479	 1.4024235574	 0.0517613185	-0.319979
C	 1.277166541	 0.0169220573	 0.5693918212	 0.318237
C	 1.4444297765	-0.8329857571	 1.5762107589	-0.233934
C	 0.1738572301	-1.6662713473	 1.7425520536	-0.234476
C	-0.9225571681	-0.7974264971	 1.0386182381	-0.240056
C	-0.1186312871	 0.0163381843	 0.0058770178	-0.018951
H	-0.3796317414	 2.0582263913	 0.8422575164	 0.105884
H	-0.3529309269	 2.0892168712	-0.9425899917	 0.096761
H	 2.0535818705	 1.4026470637	-0.9405720744	 0.109929
H	 2.149657751	 2.0791469419	 0.7014753519	 0.108256
H	 2.2921034972	-0.9044242911	 2.2481077546	 0.087131
H	 0.2638057499	-2.6557311156	 1.2712976183	 0.101774
H	-0.0614573587	-1.8503989161	 2.7966933537	 0.098524
H	-1.7274177295	-1.3988529599	 0.6059126323	 0.090858
H	-1.3738847344	-0.1243884312	 1.7768969743	 0.098684
H	-0.1900669513	-0.3972299291	-1.0081524021	 0.070742
