17
gdb 19558	3.9497	1.82024	1.70686	1.9121	67.45	-0.2308	0.0721	0.3029	834.0012	0.143733	-363.77743	-363.770557	-363.769613	-363.808672	26.636	
O	 0.0683294183	 1.3678807158	 0.2214136306	-0.413835
C	 0.0458982631	-0.0310078689	-0.0210612698	-0.220131
C	-1.3396112654	-0.5684237614	 0.0452219174	 0.383787
C	-2.35139016	-0.8718475274	 1.1100774465	-0.12892
C	-3.291924473	 0.1286372598	 0.4665660731	-0.174336
N	-2.4985337877	 0.0048608506	-0.8220647406	-0.22186
C	-2.7972777984	-1.4288613822	-1.2212986481	-0.175332
C	-2.0266820048	-1.9012448497	-0.0003486943	-0.158471
H	-0.5362397821	 1.7602005407	-0.419952998	 0.293594
H	 0.4952564004	-0.2686823515	-0.9990327605	 0.094942
H	 0.6698808351	-0.4989806914	 0.7482390071	 0.116126
H	-2.173879496	-1.0988134667	 2.154108576	 0.093556
H	-4.3577739579	-0.1062515997	 0.3656187731	 0.096673
H	-3.171038165	 1.1369198983	 0.869479555	 0.11336
H	-3.8642831307	-1.6603550818	-1.3177570598	 0.098588
H	-2.286059765	-1.6583744932	-2.1597541031	 0.109438
H	-1.619160171	-2.8760839112	 0.2383817855	 0.092822
