16
gdb 47322	2.83298	1.37783	1.04512	4.4931	66.05	-0.2474	-0.0444	0.203	1114.3403	0.12475	-475.049043	-475.040938	-475.039994	-475.083014	29.517	
O	 0.0213387085	 0.8846740409	-1.5313596535	-0.279646
C	-0.0767598461	 1.3810516073	-0.438168581	 0.378681
C	-1.4322353656	 1.6286356806	 0.224918061	-0.283814
N	-1.2709192856	 2.146916295	 1.5714826743	-0.305731
C	-0.9737550095	 3.5655322128	 1.6386522984	-0.304769
C	 0.41535873	 4.0242335395	 1.1804280475	 0.407122
O	 0.7356347697	 5.1705285588	 1.3345062516	-0.30395
O	 1.2834188975	 3.1942778591	 0.5546816222	-0.230895
C	 1.1487253927	 1.7725321727	 0.3929733248	-0.150447
H	-2.0282156593	 2.27457127	-0.4446925986	 0.126841
H	-1.942898051	 0.6607533542	 0.2625352995	 0.144711
H	-2.0858927478	 1.9427248754	 2.1348263824	 0.23862
H	-1.6751689302	 4.1912866197	 1.0567543355	 0.129502
H	-1.0545192202	 3.8978315009	 2.676947851	 0.150203
H	 1.1163018202	 1.2782081823	 1.3677333204	 0.140717
H	 2.0408580967	 1.4718060106	-0.1562419757	 0.142854
