14
gdb 69031	2.76386	1.39333	1.18011	3.0327	71.11	-0.2359	-0.0105	0.2254	1052.1936	0.097939	-436.626687	-436.618135	-436.617191	-436.659668	31.893	
O	-0.1687896814	 1.4372758608	-0.0161460099	-0.434007
C	-0.0450730437	 0.0772209711	-0.0115123623	 0.171898
C	-0.2685134292	-0.7929458708	-1.2399169898	-0.376754
C	-1.1506707997	-1.0005382374	-0.0365803262	 0.16395
N	-0.3438136004	-1.8171250665	 0.921454515	-0.409687
C	 0.5483845889	-0.7449654046	 1.1443410255	 0.379134
O	 1.3742107455	-0.5510790583	 1.9853540659	-0.333126
C	-2.558009568	-0.8869295355	 0.0399424209	 0.239341
C	-3.7558537556	-0.8034716455	 0.1171425301	-0.437072
H	 0.4970579532	 1.8104582825	-0.6048238652	 0.303308
H	-0.7258057699	-0.2456533077	-2.0594757588	 0.140605
H	 0.4294578742	-1.5783879037	-1.5126106787	 0.13389
H	-0.7782310515	-2.3022477682	 1.6957768965	 0.258352
H	-4.8128228723	-0.7241828561	 0.183647497	 0.20017
