15
gdb 11010	4.18236	1.88174	1.57048	5.1444	60.88	-0.273	0.0148	0.2878	826.5488	0.119558	-399.822165	-399.815278	-399.814333	-399.853145	25.855	
C	-0.0362946012	 1.5182551829	 0.0127779422	-0.479665
C	 0.0092391156	 0.0131171883	-0.0132942066	 0.30728
C	 0.6790024114	-0.7388570488	-1.0976127677	-0.295407
N	 1.2961545129	-0.6572684687	 0.2595131361	-0.205888
C	 0.9877002385	-1.834280916	 1.0163978721	 0.455452
O	 1.7660438529	-2.6498212079	 1.3980214492	-0.336413
O	-0.3566376573	-1.9169887836	 1.2680200912	-0.231741
C	-1.0396915088	-0.7623452002	 0.7776052112	-0.147864
H	 0.8295609105	 1.9390420422	-0.503556011	 0.141122
H	-0.9422109521	 1.8849326181	-0.4822237725	 0.129373
H	-0.035266562	 1.8908124438	 1.0422629066	 0.134046
H	 0.2729431455	-1.6990935758	-1.4054514195	 0.140949
H	 1.2339936645	-0.2058724911	-1.8627218311	 0.136305
H	-1.4021581315	-0.1736171737	 1.6280463059	 0.124067
H	-1.897877949	-1.0862346195	 0.1809977839	 0.128386
