22
gdb 88987	3.59963	0.79148	0.76624	1.601	83.53	-0.218	0.0763	0.2943	1597.6885	0.193016	-404.291464	-404.28169	-404.280745	-404.326756	36.547	
C	-0.6491644066	 1.0049039238	-0.0133314674	-0.313005
N	 0.077729554	-0.2427348341	 0.1603646836	-0.080417
C	 1.4766636951	-0.2666682675	-0.2529809948	-0.264468
C	 1.1162528683	-0.360437732	 1.1905833084	 0.033227
C	 1.4772072762	 0.7413020453	 2.1691484302	-0.248176
C	 0.5658563554	 0.7731282821	 3.3817478012	-0.006272
C	 0.7740405815	-0.2104558017	 4.5205329003	-0.324824
C	 1.0713963914	 1.2564346275	 4.710348116	 0.085142
O	 2.4014125805	 1.6896376544	 4.762035911	-0.416858
H	-0.0454186378	 1.9171616051	 0.1150303984	 0.0998
H	-1.0665427274	 1.0252409668	-1.0255645977	 0.121855
H	-1.4845561332	 1.0437363888	 0.6939156037	 0.119304
H	 1.8004256409	-1.1408129772	-0.812926649	 0.108729
H	 1.9222078171	 0.6719697289	-0.5845235787	 0.100434
H	 1.1249252825	-1.3513282357	 1.6449888042	 0.085725
H	 2.5083300417	 0.5885667022	 2.5043832598	 0.114252
H	 1.4681177163	 1.7183046574	 1.6741740946	 0.100212
H	-0.4687189264	 1.0228075843	 3.162406839	 0.089178
H	-0.0879009321	-0.6450828013	 5.0149470893	 0.110919
H	 1.6342518444	-0.8685631129	 4.4442272824	 0.112104
H	 0.3841327808	 1.8366996793	 5.3262364033	 0.084783
H	 2.7780905969	 1.3897788969	 5.5955606222	 0.288356
