20
gdb 122724	9.05067	0.39947	0.38714	5.6189	95.78	-0.2813	-0.0352	0.2461	2720.5661	0.169487	-366.017608	-366.007021	-366.006077	-366.054809	36.432	
C	-0.0326207089	 1.5960751956	 0.0336239986	-0.381021
C	-0.0021722564	 0.065640984	 0.007890986	-0.174319
C	 0.703424077	-0.4986871818	-1.2303321514	-0.158671
C	 0.7349090831	-2.0292899962	-1.2578206053	-0.179169
C	 1.4502940163	-2.5753422417	-2.5138696921	-0.383469
C	 1.4920216557	-4.0264666088	-2.5609248201	 0.055397
C	 1.5135845102	-5.2349119808	-2.5765060265	 0.084003
C	 1.5400184677	-6.5992828918	-2.5980388374	 0.203735
N	 1.562256205	-7.7609173946	-2.6159978722	-0.340108
H	 0.9807714036	 2.0125585386	 0.0290607736	 0.115941
H	-0.5579184547	 1.9965703479	-0.8405095982	 0.11594
H	-0.5416201271	 1.9691432034	 0.9274279014	 0.116503
H	 0.4990987764	-0.3078725992	 0.9103073748	 0.100114
H	-1.0278202671	-0.3237450775	 0.0474303992	 0.100114
H	 0.2026364558	-0.1273359664	-2.1353739828	 0.097571
H	 1.7310906923	-0.111408662	-1.2716522293	 0.097571
H	 1.2432580234	-2.4117111562	-0.3653291861	 0.117313
H	-0.2857277599	-2.4276506959	-1.2292427839	 0.117312
H	 0.948513038	-2.2037367812	-3.4171389591	 0.147618
H	 2.4769427596	-2.1877978455	-2.5535513092	 0.147623
