18
gdb 120364	3.23371	1.02933	0.82225	2.699	74.71	-0.2172	-0.0028	0.2144	1388.3766	0.147362	-439.116197	-439.107203	-439.106259	-439.15071	32.231	
C	 0.0133670087	 1.4070861431	 0.050089925	-0.23
O	-0.0079328824	-0.0002988605	 0.005040207	-0.238817
C	 0.6567237825	-0.5201044068	-1.1247297407	-0.055748
C	 0.5531699824	-2.0444387952	-1.0739064409	-0.187369
C	-0.8272186626	-2.6158955873	-1.2802482055	-0.1401
C	-0.7888510472	-3.4594273495	-2.3155086491	-0.029642
N	 0.5026684168	-3.5313039126	-2.8650648686	-0.324722
C	 1.3789059808	-2.6907880445	-2.2052063731	 0.405784
O	 2.5418853166	-2.504188587	-2.4829955718	-0.377914
H	 1.0419179182	 1.7987858066	 0.0869409049	 0.108012
H	-0.4909604751	 1.8514159103	-0.8226389388	 0.105112
H	-0.5142527665	 1.7131760063	 0.9566324103	 0.127328
H	 0.2003432425	-0.1382818645	-2.0534311587	 0.090399
H	 1.7195560073	-0.2319122086	-1.1318754614	 0.111453
H	 0.9820960535	-2.3659948259	-0.1153070639	 0.12665
H	-1.6875990646	-2.3751198062	-0.6766127788	 0.11826
H	-1.5790171714	-4.0564813204	-2.748083416	 0.129383
H	 0.7708447805	-4.0682298172	-3.6727534699	 0.26193
