19
gdb 84698	2.87989	1.66421	1.43023	2.2157	74.63	-0.2439	0.0065	0.2504	979.9676	0.162634	-423.042523	-423.035314	-423.034369	-423.073899	29.542	
O	 0.0031322235	 1.4669932758	 0.0150063388	-0.443396
C	 0.044094329	 0.0443977946	-0.0369169773	 0.116791
C	 0.8439668432	-0.5124796375	 1.1225329351	-0.117596
C	 0.2447826557	-1.1870117328	 2.1037243934	-0.055827
C	-1.2458521975	-1.4383719232	 2.0393452379	 0.02772
C	-1.5534325971	-2.6755138076	 1.1646286396	-0.208872
C	-1.4072720039	-2.0840278058	-0.2618115944	-0.247351
C	-1.3733632848	-0.5516786967	-0.0152816644	 0.047306
O	-1.8817143048	-0.3801042782	 1.316593807	-0.273814
H	-0.4629977539	 1.681992839	 0.8327163745	 0.281206
H	 0.5294037569	-0.1957701152	-0.990447901	 0.085913
H	 1.9070823672	-0.2911222306	 1.1451538162	 0.097317
H	 0.8004722257	-1.5961799952	 2.9431624239	 0.094038
H	-1.696219032	-1.4787111455	 3.0338312161	 0.08241
H	-0.8774101833	-3.511754099	 1.3555706605	 0.104135
H	-2.5775827312	-3.0106140678	 1.3486474711	 0.106952
H	-0.4964055045	-2.4274604286	-0.7588333119	 0.108662
H	-2.2516434038	-2.3607846504	-0.8960558468	 0.110308
H	-2.0164255443	 0.0186727649	-0.6888459183	 0.084098
