18
gdb 91720	2.64288	1.6569	1.4979	5.0602	70.58	-0.2366	0.0125	0.2491	973.1153	0.150375	-439.123341	-439.116101	-439.115157	-439.154835	29.076	
C	-0.162446897	 1.5492220539	 0.0041038127	-0.386322
C	 0.031788559	 0.0370077252	 0.0080047686	 0.026528
N	 0.8645537628	-0.4294937733	-1.1452282103	-0.315187
C	 1.9215499673	-1.280617364	-0.5361718937	-0.157179
C	 1.2488510707	-1.9108988668	 0.6984484515	-0.249784
C	 0.8370015075	-0.5193976491	 1.2029992281	 0.088285
O	 2.1101097182	 0.182856753	 1.240123692	-0.248236
C	 2.8411782789	-0.2750458252	 0.1678199539	 0.489571
O	 3.943428398	 0.1030470814	-0.084163207	-0.345508
H	 0.8000792292	 2.062224162	 0.0537302917	 0.144779
H	-0.6698783669	 1.8610768354	-0.912934372	 0.119319
H	-0.7732359815	 1.8648655597	 0.8571808623	 0.108667
H	-0.95087824	-0.454258237	 0.0064292407	 0.076036
H	 0.311941151	-0.9858780166	-1.7873896282	 0.227402
H	 2.4332594147	-1.9072513384	-1.2619286015	 0.098552
H	 0.4042010069	-2.5588121996	 0.4524846604	 0.105557
H	 1.9333587875	-2.4214224133	 1.3801857053	 0.121834
H	 0.3690343339	-0.4288202174	 2.1811938555	 0.095687
