21
gdb 57430	2.53459	1.22453	1.05826	4.5928	83.17	-0.2748	0.0148	0.2896	1250.4446	0.181085	-383.265857	-383.255851	-383.254907	-383.300669	37.453	
C	-0.0303534409	 1.5290726665	 0.2520385401	-0.433197
C	-0.0282950507	-0.0006410453	 0.0948610113	 0.231945
C	 0.4964083623	-0.6702694678	 1.3789668639	-0.405448
C	-1.469527716	-0.4753907576	-0.187268676	-0.405918
C	 0.8280548972	-0.4852147464	-1.0771765359	 0.001988
N	 1.0229915502	 0.365160816	-2.2473168865	-0.323292
C	 2.2071437232	-0.0283534815	-1.4586888927	-0.205989
C	 2.9541016475	 1.0093080481	-0.7890337364	 0.340208
N	 3.6060117961	 1.7988808859	-0.2514090576	-0.345525
H	 0.9491466281	 1.9174713818	 0.5378897395	 0.144433
H	-0.3302538545	 2.0186084637	-0.6773762295	 0.132216
H	-0.7402804015	 1.8116390816	 1.0361850263	 0.106617
H	-0.1411729158	-0.4154276703	 2.2315777726	 0.117114
H	 0.5056112724	-1.7624732878	 1.2865863865	 0.10567
H	 1.5140724557	-0.3400716928	 1.6094311071	 0.128726
H	-1.8559158138	-0.0291734709	-1.1095639178	 0.121117
H	-1.5215310702	-1.5654758457	-0.2883804087	 0.105557
H	-2.1351141744	-0.1849178387	 0.6316676656	 0.116156
H	 0.6875626925	-1.5504287327	-1.2701920854	 0.091044
H	 0.9950909295	-0.1627301795	-3.1150930209	 0.245751
H	 2.8586869928	-0.7972544766	-1.8684080355	 0.130828
