20
gdb 112947	3.88084	0.89244	0.84617	16.9223	79.14	-0.1481	-0.0233	0.1248	1424.8809	0.171614	-440.225672	-440.216341	-440.215397	-440.260789	33.827	
C	 0.2307362205	 1.6097391055	-0.7471128641	-0.355255
N	-0.1630535943	 0.203553442	-0.4331351081	-0.255643
H	-0.3436394483	 0.1073988537	 0.5696221483	 0.298458
H	-1.0374738216	-0.0306011636	-0.9089492308	 0.309874
C	 0.8908332113	-0.8293566793	-0.8266280965	 0.017148
C	 2.1868963917	-0.8614328557	-0.0100219915	-0.240938
C	 2.156516392	-2.4075629812	-0.2549217174	-0.115888
C	 0.6089921519	-2.2897293924	-0.4625598626	-0.276474
C	 2.889066118	-2.7837590206	-1.6086752448	 0.361825
O	 3.6987034551	-3.7097430932	-1.5279445437	-0.456399
O	 2.5354235048	-2.0729734001	-2.5879738439	-0.504108
H	 1.1662648177	 1.8198231264	-0.2294852025	 0.199181
H	 0.3834345268	 1.6855171597	-1.8235427171	 0.199127
H	-0.5511438173	 2.296560647	-0.42033771	 0.165886
H	 1.1129986561	-0.7380799056	-1.8918123119	 0.174814
H	 3.0382419749	-0.3035910439	-0.4013501282	 0.129887
H	 2.0143757367	-0.605946303	 1.0460313912	 0.069493
H	 2.491681249	-3.0384928308	 0.5664608083	 0.077056
H	 0.0573136372	-2.3803397261	 0.4843490221	 0.070664
H	 0.1485047677	-2.9120729289	-1.2307266767	 0.131291
