13
gdb 19349	4.44475	1.8329	1.53741	3.1593	59.98	-0.2437	-0.0382	0.2054	795.4051	0.094153	-398.498517	-398.492156	-398.491212	-398.529086	24.163	
O	-0.1565541611	 0.0332375256	 0.0949566514	-0.272535
C	-0.0074639257	 1.2301809575	 0.0020656058	 0.054139
C	 1.2884171238	 1.8990878784	 0.0093608083	 0.21542
N	 1.480622502	 3.3311939331	 0.3579668277	-0.332527
C	 1.7514000249	 2.9234906764	-1.0076384016	-0.150852
C	 3.1423977849	 2.1931200562	-1.056734303	 0.031951
O	 3.6967831782	 2.1692989691	 0.2533109706	-0.208749
C	 2.6921198534	 1.2126569414	-0.0701231907	-0.026468
H	-0.874504661	 1.9227208427	-0.1174052135	 0.063958
H	 0.5588019153	 3.770717853	 0.3837933456	 0.244816
H	 1.201325093	 3.3032190974	-1.8592403353	 0.122177
H	 3.8041578312	 2.1171271807	-1.909786849	 0.123465
H	 2.8942684511	 0.1584392484	 0.0596456837	 0.135203
