15
gdb 4787	6.81667	1.25431	1.07644	2.8398	65.22	-0.172	0.0477	0.2197	1058.0866	0.118707	-399.809907	-399.801819	-399.800875	-399.842576	29.171	
C	-0.1151753229	 1.429260105	 0.0908994751	-0.328134
N	-0.0363145781	 0.0112282346	-0.241205669	-0.386484
C	-1.1581113517	-0.7779002625	-0.0862351671	 0.474147
C	-1.3217913487	-2.1202193042	 0.122197241	-0.468284
C	-2.743117372	-2.333548231	 0.0912823615	 0.326667
O	-3.4037945458	-3.5120517111	 0.2528866736	-0.443641
C	-3.334142345	-1.130984232	-0.1207923742	-0.141468
O	-2.3464547391	-0.161636758	-0.2294549297	-0.185135
H	 0.8444755186	 1.8943373905	-0.1452393719	 0.124253
H	-0.8846612485	 1.9033315435	-0.5211414606	 0.153011
H	-0.3532303382	 1.6215886432	 1.1476991188	 0.11709
H	 0.7952871302	-0.4433138983	 0.1054166371	 0.243233
H	-0.5472380408	-2.855736051	 0.2744521879	 0.088744
H	-2.7554890032	-4.2127116189	 0.3636453987	 0.298639
H	-4.3497706447	-0.7922598497	-0.2034947213	 0.127363
