18
gdb 82369	2.69017	1.44492	1.14287	3.2147	71.48	-0.2382	-0.0193	0.219	1090.5623	0.147658	-439.060377	-439.051963	-439.051019	-439.09408	31.174	
O	 0.4400130609	 1.0418455695	 0.5712676362	-0.424477
C	 0.0034209119	-0.2270308656	 0.0985858306	 0.087139
C	-1.4900832719	-0.3158353652	-0.1991696498	-0.059533
C	-2.0144797234	 0.5812876848	-1.2587479852	-0.250683
N	-1.7333475825	-0.8267263752	-1.5573008521	-0.084944
C	-0.4215177794	-1.0543251102	-2.1906212608	-0.200061
C	 0.7115279126	-0.5273290016	-1.2555393893	-0.127897
C	 1.4275142992	 0.6782316863	-1.8430161492	 0.175024
O	 2.5946907449	 0.6798430522	-2.1343260271	-0.255849
H	-0.0049622696	 1.2283875043	 1.4035991171	 0.290226
H	 0.2705067509	-1.0062589934	 0.8258322209	 0.082453
H	-2.1464237114	-0.6859991982	 0.5843950906	 0.092223
H	-3.0673415324	 0.8462808928	-1.2735140675	 0.12193
H	-1.3515782482	 1.3492342949	-1.6497116054	 0.122918
H	-0.3045163402	-2.1313587221	-2.339482804	 0.12346
H	-0.4027520834	-0.5874601241	-3.1820079771	 0.11954
H	 1.480634976	-1.2900836112	-1.1208821424	 0.105354
H	 0.789751656	 1.5663113418	-2.0411879453	 0.083176
