19
gdb 2726	13.10376	0.79168	0.76441	2.2451	65.7	-0.2495	0.0784	0.3279	1488.8173	0.169512	-348.043668	-348.034323	-348.033379	-348.078309	31.35	
C	 0.0236506006	 1.511380789	-0.0676448572	-0.384084
C	 0.0234259386	-0.0075335016	-0.0301378528	-0.027598
O	 0.6759459417	-0.4874924486	-1.1864218486	-0.241755
C	 0.7320840236	-1.894722243	-1.2522717418	-0.051026
C	 1.4533470873	-2.2909266895	-2.5330851704	-0.182104
C	 1.5669659521	-3.8003144901	-2.6994739142	-0.071636
O	 2.2514627529	-4.051150565	-3.9172769166	-0.419543
H	 1.0479313423	 1.8939844487	-0.0938521528	 0.126544
H	-0.498737658	 1.8728674807	-0.957960612	 0.126544
H	-0.4764126307	 1.9157568386	 0.8175326068	 0.1128
H	 0.5368985881	-0.3722660014	 0.8764539957	 0.082558
H	-1.009980437	-0.3933676145	 0.0122823626	 0.082555
H	 1.2597659542	-2.2987921807	-0.3697897583	 0.081123
H	-0.2873670301	-2.3200501714	-1.2344428013	 0.081114
H	 0.9199263642	-1.8735310338	-3.3936090261	 0.115581
H	 2.4568896007	-1.8525625812	-2.5345718672	 0.115594
H	 2.1094416188	-4.2322900448	-1.8420224717	 0.084119
H	 0.5616090343	-4.2533866563	-2.7076503044	 0.084126
H	 2.3257396366	-5.0032150451	-4.0292060496	 0.285089
