12
gdb 1157	3.40903	2.29626	1.91973	3.8645	54.94	-0.298	-0.0195	0.2785	708.824	0.089471	-319.568017	-319.560507	-319.559563	-319.599209	26.349	
C	-0.0151038765	 1.5448526709	 0.0090815739	-0.389681
C	 0.0108394753	-0.000440233	 0.0184484173	-0.062961
N	 0.7620817574	-0.4630146504	 1.1882431755	-0.499688
C	-1.3859902133	-0.5135238024	-0.0046212558	 0.279244
N	-2.4696793188	-0.9101522401	 0.0554964345	-0.319457
C	 0.7023957189	-0.4869216875	-1.1951123787	 0.327142
N	 1.2473042184	-0.8533456352	-2.1442650341	-0.31386
H	 1.0123017056	 1.9117118027	 0.0240254661	 0.161831
H	-0.5300130518	 1.9181606221	-0.8774572744	 0.159993
H	-0.5416635959	 1.9017914101	 0.8980567252	 0.143671
H	 0.2978169938	-0.1385558144	 2.0320623645	 0.25321
H	 0.7780898869	-1.4783064327	 1.223038666	 0.260556
