20
gdb 122507	4.51839	0.58765	0.54281	2.8082	79.22	-0.2408	-0.0306	0.2102	1981.5535	0.168489	-440.250128	-440.239945	-440.239001	-440.286688	35.476	
O	-0.2145504384	 1.5784224738	-0.3960346571	-0.418753
C	-0.0204537698	 0.2421511465	 0.0385665888	-0.075179
C	-1.3559366873	-0.4809910378	-0.0801602772	-0.164624
C	-1.266801174	-1.9499999405	 0.3333259689	-0.157644
N	-2.5954039979	-2.561079193	 0.2446424246	-0.071676
C	-2.9364719178	-3.3034889357	-0.939330762	-0.251675
C	-2.7730499568	-4.0153233769	 0.3799373994	-0.092087
C	-1.6313615475	-4.9540810391	 0.5275627888	 0.157027
O	-1.6969193323	-5.9850254247	 1.1516226371	-0.264342
H	 0.6204909046	 2.0474680073	-0.3108667019	 0.287012
H	 0.7399569071	-0.2699867002	-0.5747252205	 0.083915
H	 0.3304767198	 0.2081224203	 1.0832630103	 0.087436
H	-2.10022676	 0.0271695404	 0.5409447678	 0.122027
H	-1.7031608346	-0.4071567588	-1.1173848973	 0.110438
H	-0.5157458055	-2.4599656439	-0.2913037968	 0.092273
H	-0.932275289	-2.030631107	 1.3745078086	 0.114503
H	-3.9378558671	-3.1684968625	-1.3388414035	 0.134289
H	-2.1597188731	-3.4670085248	-1.6878868005	 0.11827
H	-3.6572443103	-4.3141965139	 0.9369193193	 0.115256
H	-0.6943451301	-4.6560089797	 0.0082392629	 0.073535
