18
gdb 107359	3.20277	1.30426	1.0528	4.1193	73.17	-0.2449	0.0543	0.2992	1174.3934	0.147356	-439.0933	-439.085072	-439.084127	-439.126334	31.308	
C	-0.2970260709	 1.5497948245	-0.11207821	-0.37861
C	-0.0696406432	 0.0404078332	 0.0346502334	-0.270224
C	 0.7684967193	-0.5341148694	-1.0726808396	 0.412313
C	 0.2427988918	-0.9357698897	-2.4358883209	-0.379777
C	 0.8743714488	-1.9561257995	-1.5146513359	-0.001297
O	 2.249364314	-2.205355455	-1.7129172621	-0.253125
C	 2.9493699934	-1.050870498	-1.4657583059	 0.474937
N	 4.187790624	-0.8785362227	-1.5793638395	-0.57226
O	 2.1070009023	-0.0584694745	-1.078373265	-0.262945
H	 0.6561526263	 2.0851548896	-0.1172114556	 0.14474
H	-0.8185976057	 1.7808122587	-1.0463606711	 0.120533
H	-0.899262018	 1.9327511419	 0.7164818025	 0.11684
H	 0.4210650789	-0.1756524763	 0.9910254788	 0.117944
H	-1.0296345255	-0.4886038783	 0.0432079191	 0.104824
H	-0.8350074865	-0.9841454598	-2.5496209039	 0.128177
H	 0.7942196149	-0.6327546363	-3.3193446595	 0.140522
H	 0.3395683579	-2.7989201892	-1.095913817	 0.124074
H	 4.6365640684	-1.7405389591	-1.8782941079	 0.233334
