18
gdb 126164	3.85285	0.9924	0.94898	5.3111	73.23	-0.3124	-0.0387	0.2737	1311.2865	0.147329	-431.409276	-431.400369	-431.399425	-431.444234	31.247	
C	 0.0528364405	 1.5402667077	 0.0764861126	-0.393855
C	-0.0093005937	 0.0127460902	-0.0063918467	-0.183296
C	-1.4469274059	-0.5328476923	-0.060710962	 0.04547
C	-2.2241334398	-0.1509290329	-1.3220197099	-0.399341
N	-1.414056557	-1.999436246	 0.0738267361	 0.157362
N	-0.9048983919	-2.8206965827	-0.8279445191	-0.13036
N	-1.0509176577	-4.0117749299	-0.3255194787	-0.081366
N	-1.6448974668	-3.9088800092	 0.8757174699	-0.090915
N	-1.8723712857	-2.6541836797	 1.1288857347	-0.118036
H	 1.0887766218	 1.8694487373	 0.1941617831	 0.130808
H	-0.3424171096	 2.0185655537	-0.8242450057	 0.128463
H	-0.5140867069	 1.9163967956	 0.9351593895	 0.124476
H	 0.5365116497	-0.3460614043	-0.8859331991	 0.130067
H	 0.4843283092	-0.4212454482	 0.8701747903	 0.121509
H	-1.9936576003	-0.2069002963	 0.8284828733	 0.130352
H	-3.2243459434	-0.5915269739	-1.3097017782	 0.139977
H	-2.3316899071	 0.9344636993	-1.3755778821	 0.136902
H	-1.7029964155	-0.4960582581	-2.218734728	 0.151784
