15
gdb 43750	4.79647	0.95732	0.8934	0.7852	69.75	-0.2653	-0.0267	0.2386	1251.6137	0.112205	-416.801833	-416.79389	-416.792946	-416.835135	29.061	
O	 0.2509918177	-0.0009949709	-0.0396824507	-0.280105
C	 0.0636011645	 1.1699776194	 0.0247041219	 0.410976
C	-1.1637678159	 2.0935179206	 0.1205884013	-0.433085
C	-0.1383640758	 3.2301169205	 0.0816903803	 0.329167
C	-0.2365502032	 4.4510777257	-0.801369576	-0.433992
C	-1.1938435951	 5.4279423937	-0.2783054167	 0.26231
N	-1.9562221046	 6.1842527685	 0.1469917603	-0.295545
C	 0.8514791284	 3.0725360083	 1.1541893616	-0.277082
N	 1.0301117978	 2.259674161	-0.0960760339	-0.209894
H	-1.7842601112	 2.0207320483	-0.7769164415	 0.15092
H	-1.7996605182	 2.0084186253	 1.0042998546	 0.149424
H	 0.7471597225	 4.9241043225	-0.8897256395	 0.170706
H	-0.5437902687	 4.1628495292	-1.8134928273	 0.164619
H	 1.6262138952	 3.8243783331	 1.2632554451	 0.147535
H	 0.5852538268	 2.5592418248	 2.0744929605	 0.144045
