16
gdb 52191	3.76078	0.82639	0.7952	3.8378	73.98	-0.2608	0.0033	0.2641	1453.5837	0.121708	-437.814332	-437.805148	-437.804204	-437.849579	32.283	
N	-0.3950066746	 0.9891784646	-0.6532514069	-0.43716
C	-0.4628438809	-0.2559789121	-0.4675113417	 0.12737
O	-0.6390542205	-0.7329528183	 0.7877523466	-0.185232
C	-0.7861626007	-2.1445427022	 0.913099877	-0.136724
C	-2.1925994492	-2.5793277867	 0.5874683812	 0.059936
O	-2.5062605006	-2.7406870509	-0.7957017113	-0.23891
C	-2.4911091779	-3.9175007096	 0.0308598989	-0.147985
C	-1.4712842022	-4.9009935817	-0.2215241984	 0.330056
C	-0.6472324707	-5.7526793295	-0.4222108496	-0.423832
H	-0.244223643	 1.1827823689	-1.6411809006	 0.230569
H	-0.3903954107	-1.0424107556	-1.2284263659	 0.105678
H	-0.0724885296	-2.6765037306	 0.2745934591	 0.127942
H	-0.556039312	-2.3731984466	 1.9576059619	 0.131357
H	-2.9737460404	-2.0900289208	 1.170201276	 0.117989
H	-3.4813447035	-4.3267373679	 0.2279519966	 0.127921
H	 0.0838556366	-6.501818041	-0.604378533	 0.211026
