18
gdb 22735	2.41401	1.39804	0.98752	1.9047	77.13	-0.2463	-0.0145	0.2319	1214.8538	0.145464	-439.009616	-439.000621	-438.999677	-439.043612	33.378	
C	 0.3308949031	 1.6469890235	-0.1577258376	-0.399209
C	 0.0217819317	 0.1642199181	 0.0374799577	-0.086221
C	 0.3843640938	-0.8073406274	-1.1431184186	-0.350676
C	 1.2239220451	-1.6444493007	-0.1645128954	 0.386886
C	 1.4019555565	-3.0984076754	-0.0585430383	-0.255699
O	 2.4715092575	-2.2418588553	-0.4675253213	-0.262022
C	 0.9766192322	-0.6389637247	 0.9178557924	 0.336704
N	 1.4524026589	-0.5699997791	 2.089902027	-0.248247
O	 0.9399841547	 0.535584718	 2.7880626455	-0.387924
H	 1.3685090443	 1.7916148178	-0.4758097102	 0.121023
H	-0.3214838095	 2.0750969571	-0.9259999757	 0.116223
H	 0.1839835168	 2.1989517088	 0.7733195296	 0.140356
H	-1.0145696129	 0.0392774091	 0.3707284627	 0.099277
H	-0.4511274607	-1.3206280187	-1.6230650683	 0.111066
H	 1.0013892042	-0.3295450602	-1.9087031364	 0.122384
H	 1.5155450322	-3.5500160317	 0.9255818652	 0.128764
H	 0.9933860543	-3.7435599334	-0.8358763469	 0.117425
H	 1.4033142178	 0.4771671942	 3.6307249886	 0.30989
