15
gdb 8094	3.04839	2.06624	1.54555	3.5981	61.97	-0.2453	0.008	0.2533	846.2003	0.118153	-399.791422	-399.783908	-399.782963	-399.822863	28.362	
C	-0.0188638021	 1.5594047507	 0.0565358649	-0.482739
C	 0.0243195435	 0.0625205919	 0.0513647566	 0.336405
N	-1.224150605	-0.7180973487	 0.072049217	-0.382846
C	-0.6810805174	-1.6803964514	 0.9486463829	 0.441352
O	-1.1345801881	-2.6952887584	 1.3932498973	-0.344132
C	 0.6363007108	-0.9343420949	 1.0553674901	-0.365862
C	 1.1707129161	-0.7900223586	-0.3754231211	 0.062355
O	 0.9847303292	-1.7639146861	-1.3513896553	-0.418219
H	 0.9799530959	 1.9763132345	 0.2144986443	 0.12649
H	-0.391283112	 1.9413764159	-0.9008617523	 0.132025
H	-0.6808497974	 1.9239247637	 0.8472750161	 0.137861
H	-1.6819404432	-1.0076887114	-0.7864066447	 0.245173
H	 1.2474622313	-0.7727087194	 1.9329496755	 0.114936
H	 2.1331765554	-0.2752066104	-0.4180983616	 0.098995
H	 1.4655443527	-2.5570059075	-1.0906193396	 0.298205
