19
gdb 108522	2.88029	1.44071	1.21097	0.9955	70.02	-0.255	0.0628	0.3178	1077.2014	0.160399	-460.146107	-460.138078	-460.137133	-460.17878	30.895	
O	 0.0437983367	 1.4024506573	-0.1935705275	-0.420073
C	 0.06190063	 0.0250892124	 0.1310649476	-0.135207
C	-1.3461842738	-0.539313404	 0.1119808622	 0.38156
C	-2.2971343925	-0.0909085006	 1.2175318319	-0.264929
C	-3.3344477136	-1.2231153512	 1.2303438841	-0.099284
O	-2.6057800362	-2.4126222105	 0.9063595024	-0.265083
C	-1.5882922721	-2.0688848471	-0.0050712611	 0.015351
C	-2.0375304285	-1.7515081131	-1.446965745	-0.114445
O	-1.9260554951	-0.3263783076	-1.2148191319	-0.347432
H	-0.4402714279	 1.4661548219	-1.0267523981	 0.293867
H	 0.6934696616	-0.5430734297	-0.5711416171	 0.084603
H	 0.5033881192	-0.0671608905	 1.1289961333	 0.109757
H	-1.7595559835	-0.0470267117	 2.170290114	 0.109719
H	-2.7278208103	 0.8906446995	 1.0124212206	 0.122633
H	-3.8091128465	-1.3833022634	 2.2009887572	 0.114225
H	-4.1202937397	-1.0362483273	 0.4850193438	 0.105978
H	-0.7585451047	-2.7670780466	 0.1182622417	 0.090977
H	-1.3502087444	-2.0918043889	-2.2311126141	 0.105092
H	-3.0597926389	-2.054956589	-1.696972534	 0.112692
