21
gdb 95382	2.68	1.57418	1.25965	3.0221	76.83	-0.2363	0.0617	0.298	1072.5068	0.185829	-424.241495	-424.233561	-424.232617	-424.274146	31.367	
O	-0.3591180333	 1.4995907982	 0.8225788222	-0.43288
C	-0.0551445485	 0.2478430217	 0.2087806287	 0.100028
C	 0.7528955719	-0.6491149556	 1.1589533885	-0.228548
C	-0.2860006082	-1.0995653408	 2.2078255404	-0.230649
C	-1.6088165846	-1.2301892931	 1.4158347538	 0.007079
C	-2.8293984789	-0.4628030511	 1.9514295313	-0.096552
O	-3.5884297902	-0.1206977725	 0.8041738142	-0.252764
C	-2.6641905801	 0.271446863	-0.2112858156	-0.104201
C	-1.3709088005	-0.5370243021	 0.0362737127	-0.033411
H	 0.472406314	 1.9303963138	 1.0434951876	 0.283024
H	 0.4568689552	 0.4117227507	-0.7504425435	 0.058355
H	 1.1356033378	-1.5124266051	 0.6005286977	 0.098646
H	 1.619471169	-0.1331970884	 1.5889496602	 0.083398
H	 0.0036000253	-2.0284563575	 2.705414394	 0.095513
H	-0.3850065837	-0.3334507857	 2.9834376373	 0.104049
H	-1.8812126496	-2.2786540594	 1.2693486435	 0.071935
H	-3.4738460729	-1.0499066576	 2.6120808556	 0.099585
H	-2.4997023654	 0.4399557911	 2.4910665109	 0.092955
H	-3.1301062277	 0.0502916847	-1.1755945957	 0.095838
H	-2.4617936484	 1.3472526962	-0.153669652	 0.113949
H	-1.2174555912	-1.2811793203	-0.749571412	 0.074651
