16
gdb 55887	3.45125	0.91557	0.86081	3.1278	72.11	-0.2432	0.0024	0.2456	1354.3385	0.12224	-437.862403	-437.853236	-437.852292	-437.897326	33.298	
N	-0.2059671527	 0.3974913998	 0.9233756444	-0.507419
C	 0.0153428213	-0.0078502106	-0.3589143336	 0.376865
O	 0.878437689	 0.4630173743	-1.071791531	-0.35745
C	-0.9619669926	-1.0868901482	-0.8494204216	-0.340157
C	-0.9919597685	-2.3149496248	 0.0297100984	 0.056934
O	-1.5212559617	-2.1628501361	 1.352400785	-0.248763
C	-2.25139495	-2.9907991963	 0.4254672245	-0.153654
C	-3.5428231339	-2.5285028496	-0.0030337229	 0.336867
C	-4.6326052203	-2.173885519	-0.3655992114	-0.423664
H	 0.4374898233	 1.0585751211	 1.3267003571	 0.258611
H	-0.8453103444	-0.1019423812	 1.5210322953	 0.27549
H	-1.9667535938	-0.6559695472	-0.9067422135	 0.13753
H	-0.6488224321	-1.3632513566	-1.8584173588	 0.135606
H	-0.0986816703	-2.9397426442	-0.0064824795	 0.114991
H	-2.1985013438	-4.0525429349	 0.6630200106	 0.126486
H	-5.5956397194	-1.8560071565	-0.6825896027	 0.211725
