19
gdb 94119	3.65757	0.85307	0.76866	3.6532	73.21	-0.2705	0.0103	0.2807	1483.489	0.158818	-460.197156	-460.187976	-460.187032	-460.233223	32.781	
O	-0.0935180723	 1.2202883783	-0.3512149805	-0.434343
C	-0.1274242216	-0.1575797715	-0.0296984593	 0.132513
C	 0.7718537047	-0.5614167278	 1.1571100167	-0.239799
C	 0.1079398517	-1.8244624959	 1.7574384334	-0.231443
C	-1.3215019992	-1.884428133	 1.1553866981	 0.096888
C	-1.5275526508	-0.5378388238	 0.4575470148	-0.223591
O	-1.3591049628	-2.9386571582	 0.1668304263	-0.192285
C	-2.3375422606	-3.856302805	 0.2391167696	 0.166023
O	-2.4531898617	-4.7464350898	-0.5492616165	-0.27895
H	 0.7679004198	 1.420350317	-0.7298896513	 0.284529
H	 0.1222626742	-0.7687785905	-0.910215424	 0.085913
H	 1.8123409506	-0.7295667975	 0.8655490725	 0.098052
H	 0.7596847003	 0.2659822903	 1.8748631067	 0.109648
H	 0.6368070811	-2.7405812284	 1.4858204098	 0.126333
H	 0.0725426111	-1.782696354	 2.8489977459	 0.110977
H	-2.0888777522	-2.0921477403	 1.9082766253	 0.085539
H	-1.8507822145	 0.2131433425	 1.1884757328	 0.113335
H	-2.2749241589	-0.5877946024	-0.3367198875	 0.116
H	-3.011734979	-3.6976229601	 1.1043920471	 0.074661
