18
gdb 121195	2.56357	1.05848	0.81321	3.6093	72.86	-0.2705	-0.003	0.2675	1408.1151	0.146479	-439.057207	-439.047744	-439.0468	-439.093046	32.296	
C	 0.0344497223	 1.36068514	 0.1504970206	-0.232313
O	-0.0108930547	-0.0462828396	 0.0597491404	-0.239637
C	-1.3244894228	-0.5503987702	-0.0141473202	-0.084751
C	-1.2134256853	-2.0620016602	-0.0737123657	-0.076564
C	-0.7835450437	-2.7639197103	 1.2305435802	-0.070574
O	-2.0535613395	-3.4608570082	 1.3275492635	-0.274318
C	-2.5197530767	-2.8920068097	 0.0939467545	-0.02225
C	-3.776660107	-2.1493102006	 0.245725746	 0.287895
N	-4.7642234151	-1.5574794509	 0.3471385029	-0.326914
H	 1.0865751261	 1.6489069386	 0.2050254806	 0.131953
H	-0.4222747912	 1.8390739809	-0.7294149817	 0.111126
H	-0.4842661647	 1.727189165	 1.0495504418	 0.112272
H	-1.9137477284	-0.2416433487	 0.8654385324	 0.108552
H	-1.8485926244	-0.1646759771	-0.9047778212	 0.10326
H	-0.634968854	-2.3524393211	-0.9518852372	 0.104873
H	 0.0528082987	-3.464660124	 1.144552115	 0.1169
H	-0.6170455714	-2.0996933253	 2.0849365536	 0.122806
H	-2.6679678083	-3.6591399286	-0.6763796355	 0.127685
