19
gdb 84021	2.19507	1.64837	1.45562	1.2248	70.25	-0.2245	0.0644	0.2889	1018.4106	0.160396	-460.141507	-460.133415	-460.13247	-460.173578	32.38	
O	 0.1162902539	 1.3839854384	 0.0619181704	-0.432403
C	 0.0255963168	-0.005567894	-0.0137929121	 0.053633
C	-1.3191210867	-0.7247991956	 0.0125820363	-0.130215
C	-2.592586319	 0.1143891598	 0.062251911	-0.249277
C	-2.9698292443	 0.6573753707	-1.318705477	-0.077011
O	-1.823875552	 1.1606893661	-2.0085612544	-0.258033
C	-0.9652297951	 0.1014533156	-2.4207689336	-0.172018
C	-0.4666960188	-0.7191148658	-1.2424554838	 0.282449
O	 0.1051280898	-1.9476028019	-1.6028846611	-0.458242
H	-0.5000568387	 1.7542674781	-0.5870927471	 0.296359
H	 0.8367423679	-0.4752727989	 0.5336701343	 0.102967
H	-1.331441256	-1.6670331927	 0.5500774704	 0.09935
H	-3.4234458583	-0.4816193193	 0.4516324763	 0.106983
H	-2.4462617475	 0.9524592371	 0.754523481	 0.119247
H	-3.4369095281	-0.1292998388	-1.9303869721	 0.10053
H	-3.6702422496	 1.4934462456	-1.2433149848	 0.111932
H	-1.4892767972	-0.5673405072	-3.1206984039	 0.11003
H	-0.1340781606	 0.5760355911	-2.9555072411	 0.108942
H	 1.0053470933	-1.7800868083	-1.9046695987	 0.284776
