19
gdb 115192	4.31001	0.96143	0.82262	3.6908	80.19	-0.2391	-0.0518	0.1873	1389.758	0.15927	-423.052332	-423.043624	-423.04268	-423.086094	32.266	
C	 0.0315807438	 1.4335945495	 0.0063459913	-0.244606
O	-0.0796141223	 0.0293131767	 0.0615412874	-0.244404
C	 0.6403858725	-0.5768303202	 1.1244957145	 0.093487
C	-0.0293180768	-1.9130180753	 1.4428261861	-0.244176
C	 0.809042312	-2.7191283552	 2.4425157448	-0.33123
C	 2.2467435636	-2.9208154193	 1.9748049029	 0.389228
O	 2.9020904781	-3.8922117409	 2.2931516505	-0.331879
C	 2.8091918107	-1.8436511795	 1.128807509	-0.159067
C	 2.0921564256	-0.7762353157	 0.7572703111	-0.060263
H	 1.0648735872	 1.7721320645	-0.1628019508	 0.107332
H	-0.5828918723	 1.7715887169	-0.8313213962	 0.134103
H	-0.3354725761	 1.9049309746	 0.9314085655	 0.109162
H	 0.587481816	 0.0762213558	 2.0157728408	 0.080246
H	-1.0382085678	-1.7366970121	 1.8265216231	 0.108394
H	-0.1321704957	-2.4652749287	 0.5018773197	 0.122015
H	 0.8551204907	-2.1863840725	 3.4037433102	 0.12442
H	 0.3752666949	-3.7007475813	 2.6477906138	 0.127023
H	 3.845841188	-1.9711098966	 0.8319688167	 0.109065
H	 2.547072798	 0.0006816793	 0.1471805795	 0.11115
