23
gdb 39682	3.89341	0.99254	0.85671	1.5792	85.34	-0.2387	0.0804	0.3191	1424.9669	0.208147	-388.290882	-388.282135	-388.281191	-388.325654	32.887	
C	-0.0747350302	 1.2946830843	-0.0358391313	-0.064377
C	 1.4394820559	 1.5007461003	 0.1603681609	-0.296552
C	 1.4179514597	 0.0524677817	 0.7044139615	 0.15385
O	 0.0152485054	-0.0880885134	 0.3623379075	-0.296433
C	 2.2959229675	-0.991708106	 0.0349561624	 0.025865
C	 3.8018583696	-0.7687039474	 0.3724627996	-0.226692
C	 4.3405756543	-2.1445687894	 0.8126691489	-0.192463
C	 3.1230750848	-2.81295382	 1.4670888472	-0.194214
C	 1.9670617784	-2.4318199381	 0.5264542597	-0.223235
H	-0.7123221047	 1.8747394359	 0.6444184948	 0.097691
H	-0.459047221	 1.4039120035	-1.0567640713	 0.102348
H	 2.0050681281	 1.6147676258	-0.7670093532	 0.107529
H	 1.7369116064	 2.2814317764	 0.8617228214	 0.106944
H	 1.5481715332	-0.0015544734	 1.7970620582	 0.065803
H	 2.1245346424	-0.915978746	-1.0441349791	 0.063596
H	 4.3596194518	-0.3440971222	-0.4663380777	 0.095043
H	 3.8935648403	-0.0560976541	 1.2024794507	 0.094689
H	 4.6519879076	-2.7249352927	-0.0648367553	 0.095941
H	 5.2078518788	-2.0690068658	 1.4752565901	 0.09117
H	 3.2344217579	-3.8940328945	 1.5917906563	 0.091849
H	 2.9588334428	-2.387144372	 2.4651710843	 0.095283
H	 0.9820867566	-2.4869787525	 0.9978080754	 0.11249
H	 1.9475502743	-3.1171497504	-0.3278086709	 0.093877
