16
gdb 128810	4.57294	0.8887	0.76136	4.127	68.2	-0.2213	0.0127	0.234	1446.9531	0.12505	-471.235114	-471.226404	-471.22546	-471.269424	30.619	
C	-0.5802729475	 1.314932519	-0.5774950555	-0.22765
O	-0.6511011059	-0.0938608523	-0.6305708182	-0.245701
C	-0.6573693374	-0.689627225	 0.64955126	-0.168966
C	-0.8115080484	-2.1609894257	 0.4669141736	 0.386923
N	-0.2381236029	-3.0692979984	 1.194020816	-0.273047
N	-0.7296305161	-4.2544332581	 0.6926897627	-0.297549
C	-1.5902866193	-4.1053133151	-0.3775172111	 0.456534
O	-2.1515417612	-4.9417262476	-1.048897084	-0.419618
N	-1.644191717	-2.7079971545	-0.4762379746	-0.382689
H	-0.5943719954	 1.6778568026	-1.6071878668	 0.137213
H	-1.4356683167	 1.7439753001	-0.0331716534	 0.111941
H	 0.3457768767	 1.6551985108	-0.090764152	 0.116287
H	 0.2703060077	-0.4961758333	 1.2067753581	 0.128821
H	-1.4946638621	-0.2901526136	 1.2488864068	 0.112616
H	-0.4063861733	-5.1311732199	 1.0611656639	 0.281524
H	-2.1046881313	-2.208930229	-1.2175462654	 0.283359
