17
gdb 105158	2.1585	1.3339	0.94999	3.1743	75.14	-0.2865	-0.0657	0.2208	1246.0537	0.134469	-418.009087	-417.99979	-417.998846	-418.04358	32.893	
C	 0.569052432	 1.5124359441	 0.4217602079	-0.387925
C	-0.1148825299	 0.1838275879	 0.0763180956	-0.274604
C	 0.390272279	-0.3937722586	-1.228432045	 0.222686
N	 1.7365858575	-0.9673576441	-1.2491697059	-0.334844
C	 0.6097489349	-1.8825753914	-1.4325251774	-0.235388
C	 0.3303638874	-2.8179583935	-0.370564152	 0.343492
N	 0.0728336043	-3.5689141128	 0.4697579034	-0.329434
C	-0.0348825424	 0.2947165691	-2.4956328948	 0.105886
O	 0.5562788592	 0.1658793957	-3.5404761408	-0.262963
H	 1.6507281828	 1.3739797053	 0.5028633108	 0.14409
H	 0.3826731971	 2.2765011629	-0.3413389165	 0.117832
H	 0.200311647	 1.8999876581	 1.3751265672	 0.127576
H	 0.0529045444	-0.5412919446	 0.8769612866	 0.140278
H	-1.2014225215	 0.3201323491	 0.0001040499	 0.110917
H	 2.144318413	-0.7865681066	-2.168578096	 0.25935
H	 0.4188990536	-2.2648642741	-2.4316893397	 0.150815
H	-0.9376877684	 0.9338689936	-2.4121839033	 0.102235
