21
gdb 95943	2.0348	1.52452	1.18808	3.5114	78.05	-0.2525	-0.0232	0.2293	1167.2765	0.181432	-424.243472	-424.233989	-424.233045	-424.278318	35.069	
C	-0.3756414811	 1.4766896928	-0.0160399934	-0.417905
C	 0.0811333981	 0.0191875098	-0.0518584468	-0.038735
C	 1.0799602968	-0.3046173038	-1.1750398775	-0.08878
O	 1.6914770501	-1.5189588146	-0.7923127671	-0.242898
C	 1.9685149511	-1.3980130473	 0.5942465016	-0.127794
C	 0.8307548357	-0.5458075906	 1.2148289258	 0.173046
C	 1.3736598197	 0.5257419376	 2.1769530067	-0.460251
C	-0.1529875238	-1.4008459877	 2.0019306465	 0.131113
O	-0.0130558114	-2.5608270214	 2.2887797909	-0.251819
H	 0.4630975936	 2.1678890174	 0.109980185	 0.121752
H	-0.8769532204	 1.7357231948	-0.954555221	 0.122504
H	-1.0880293027	 1.6612309555	 0.7940111959	 0.121069
H	-0.8034988627	-0.6092037109	-0.2193632243	 0.088654
H	 0.6075126547	-0.4498091449	-2.1503218711	 0.11207
H	 1.8253158289	 0.506250838	-1.268310082	 0.081654
H	 2.0083498453	-2.3996604054	 1.0263575109	 0.135442
H	 2.9385217938	-0.8999733313	 0.7499881394	 0.0818
H	 2.0169394713	 1.23639561	 1.6509436436	 0.128294
H	 0.5693612721	 1.0905723819	 2.6592485169	 0.121944
H	 1.9711682499	 0.0569777395	 2.9657319899	 0.132074
H	-1.066510669	-0.8442197294	 2.3212028099	 0.076768
