19
gdb 74355	3.9459	0.84194	0.75749	4.5864	81.3	-0.2514	0.0027	0.2541	1527.3843	0.158456	-423.072449	-423.063319	-423.062375	-423.107547	32.655	
C	-0.0019526925	 1.5887485659	 0.142397424	-0.491232
C	 0.0190578278	 0.100348658	 0.0052953094	 0.337882
C	-0.0746670946	-0.6075559273	-1.123323314	-0.18233
C	-0.0783756325	-2.0883095967	-0.8724933546	 0.080264
C	 0.3162844356	-2.2127874919	 0.6152150099	-0.23951
C	 0.125090026	-0.8014728817	 1.2168023116	-0.297253
O	-1.4187814606	-2.6153597863	-1.0801176038	-0.194121
C	-1.6002605551	-3.5540731882	-2.0206424484	 0.16593
O	-2.6661650511	-4.0398618466	-2.2607337881	-0.283125
H	 0.9143180325	 1.9529442829	 0.6235281186	 0.129933
H	-0.1028265924	 2.0859295927	-0.8255309994	 0.129174
H	-0.8352869378	 1.90851402	 0.7805785028	 0.134918
H	-0.1945021478	-0.1916759249	-2.1174970002	 0.095294
H	 0.5973093816	-2.6471546311	-1.5317796564	 0.083133
H	-0.2802199318	-2.9820584421	 1.1093933501	 0.121728
H	 1.3658738515	-2.5127190308	 0.6837110935	 0.111475
H	 0.9563122658	-0.5149729766	 1.8716232821	 0.106944
H	-0.7843977499	-0.7247849931	 1.8272579314	 0.120274
H	-0.6619879047	-3.8276031222	-2.5445904186	 0.070624
