22
gdb 122822	4.14748	0.55455	0.5423	4.1009	81.22	-0.2402	0.0264	0.2667	2148.5814	0.191856	-441.512862	-441.50124	-441.500296	-441.552808	39.227	
C	-0.1732497517	 1.3880409139	-0.591339562	-0.380256
C	-0.0949714809	 0.0205374761	 0.0926356888	-0.160766
C	-1.4315227914	-0.7281307994	 0.0891048481	-0.163819
C	-1.3423002635	-2.097918361	 0.7731616747	-0.167016
N	-2.6031317124	-2.8234369994	 0.78322	-0.321978
C	-2.9261647391	-3.7292326925	-0.1867526782	 0.407989
O	-2.1821167741	-4.0310702527	-1.0973561288	-0.359062
C	-4.2911432989	-4.4008966635	 0.0180811102	-0.18095
O	-4.877752775	-4.6179148976	-1.2426727611	-0.391088
H	 0.7949535437	 1.8979994688	-0.5758467771	 0.112324
H	-0.4812863195	 1.2885880425	-1.6378115733	 0.119426
H	-0.9007205564	 2.0390628883	-0.0936507829	 0.112181
H	 0.6642524788	-0.5959573622	-0.4058804774	 0.10438
H	 0.2494439233	 0.147574222	 1.1280075662	 0.092008
H	-2.1971490155	-0.1187775246	 0.5895833653	 0.083343
H	-1.7746849292	-0.8777763446	-0.941502193	 0.11986
H	-0.6252102336	-2.7310714626	 0.2446109564	 0.143889
H	-0.9951800163	-1.9846051947	 1.8073976568	 0.099021
H	-3.3211591061	-2.5240364	 1.4226464738	 0.24038
H	-4.1004403957	-5.343885163	 0.5544764865	 0.116297
H	-4.932514408	-3.7814010304	 0.6678142185	 0.080783
H	-5.5482232285	-5.2997073632	-1.1486089515	 0.293053
