20
gdb 103187	2.92908	1.52842	1.27952	1.5752	77.32	-0.2344	0.0645	0.2988	1053.1096	0.171092	-403.070088	-403.061814	-403.06087	-403.102739	32.572	
C	-0.0599470725	 1.5499255081	-0.0399835031	-0.452118
C	-0.0042390348	 0.0191106139	-0.0237903444	 0.338154
C	-1.4056771238	-0.5621648299	 0.1344145697	-0.155306
O	-1.8710433437	-0.2243380667	 1.436161785	-0.425145
C	 0.879729745	-0.5256525435	-1.1521688004	-0.099022
C	 2.0994786632	-0.4391132702	-0.3217053381	-0.055667
C	 1.1330214372	-0.4909725288	 0.9273070359	-0.106622
C	 1.16407016	-2.0080340894	 0.7054341646	-0.167763
N	 1.5947386163	-1.7837942044	-0.7173858516	-0.163654
H	 0.9435430022	 1.9854706341	-0.0577091127	 0.114201
H	-0.59900897	 1.9141707096	-0.922344303	 0.107257
H	-0.5841022053	 1.9142562462	 0.8473366885	 0.135085
H	-2.0575637795	-0.1362150319	-0.6464519715	 0.082788
H	-1.3992423777	-1.6503501298	-0.0133195305	 0.092702
H	-2.7666764302	-0.5597384456	 1.5341925712	 0.289109
H	 0.7686425279	-0.3924222544	-2.2214553891	 0.090295
H	 3.1048733165	-0.0843230397	-0.5044811212	 0.095033
H	 1.2699204848	-0.0294862309	 1.9030523007	 0.075724
H	 1.9911635253	-2.495031461	 1.2287965334	 0.106584
H	 0.2506108091	-2.5941918358	 0.8481025066	 0.098363
