11
gdb 132232	2.16009	1.86491	1.00084	1.8498	57.45	-0.2729	-0.0501	0.2228	1032.4688	0.065019	-533.8392	-533.832287	-533.831343	-533.871181	25.159	
F	 0.0799616621	 0.0968642074	 0.0922941356	-0.019041
C	-0.1023903196	 1.3842420574	-0.0095672255	 0.422003
C	-1.275959323	 2.0003516699	 0.112767268	-0.408451
C	-1.3043707012	 3.4362056111	-0.0284029406	 0.427433
N	-2.3305617152	 4.1595587546	 0.0598442976	-0.509504
O	-0.0451441452	 4.0301388502	-0.2869508694	-0.263486
C	 1.1196583385	 3.3704149832	-0.4034399865	 0.493316
O	 2.1534901654	 3.9042786297	-0.620478346	-0.317412
O	 1.0711376179	 1.9942810519	-0.2562463571	-0.231209
H	-2.1888672636	 1.4621872613	 0.3111248043	 0.16132
H	-2.107413186	 5.1453352134	-0.0752883703	 0.24503
