20
gdb 41202	2.83179	1.74088	1.54215	1.4909	78.84	-0.2103	0.042	0.2523	958.6771	0.173224	-403.004176	-402.997159	-402.996214	-403.03507	29.808	
C	 0.0026540763	 1.5946858005	-0.1765315664	-0.179799
O	 1.4695723072	 1.5036545348	 0.0246793691	-0.359703
C	 1.1868879141	 0.2683050496	 0.8235444043	 0.400786
C	 1.3453510966	-1.2886112626	 0.8217601547	-0.266874
N	-0.209630677	-1.3232456272	 0.7753281388	-0.166591
C	-0.756622747	-1.1854465527	 2.1333772958	-0.154295
C	-0.4197396759	 0.1684178327	 2.7927865178	-0.207834
C	 0.9516008227	 0.674536398	 2.3006250307	-0.25361
C	-0.0105927334	 0.0349418167	 0.0161126523	-0.003794
H	-0.4648909809	 2.2061002706	 0.6004712429	 0.113808
H	-0.2430688287	 1.9718833756	-1.1718270896	 0.120239
H	 1.7413014331	-1.7286356298	-0.0946858115	 0.121912
H	 1.774576284	-1.7706075134	 1.706078745	 0.102588
H	-1.8424986367	-1.3222373414	 2.0795923013	 0.106068
H	-0.3636704342	-2.022096683	 2.7222312283	 0.107022
H	-1.1870658061	 0.8951593508	 2.5042705662	 0.104987
H	-0.4565573691	 0.0977016222	 3.8848887241	 0.097129
H	 1.7617088255	 0.2563162929	 2.9091758565	 0.098403
H	 1.0179762065	 1.7609937611	 2.3900511821	 0.112565
H	 0.2784318129	-0.3243050757	-0.9743937425	 0.106993
