15
gdb 28751	3.41479	1.1938	0.88456	2.8058	74.08	-0.1731	0.0055	0.1786	1221.944	0.113696	-454.00333	-453.995166	-453.994222	-454.036216	30.49	
O	 1.2153286929	 0.7601679852	 0.1686273348	-0.433563
C	 0.3275438155	-0.2310900636	-0.0942607184	 0.37629
C	-0.8085743666	-0.3045905905	-0.8628933542	-0.291719
C	-1.3086502453	-1.641237868	-0.7312913621	-0.26164
C	-0.4512835657	-2.3063799695	 0.1081193944	 0.417393
N	-0.4762026319	-3.6283245505	 0.5665757482	-0.395833
C	 0.4264758744	-4.205534872	 1.402717341	 0.142355
O	 1.4011009038	-3.6485397685	 1.8811950387	-0.345426
N	 0.5480051181	-1.4425309735	 0.4970148652	-0.339267
H	 0.9330682241	 1.5494954603	-0.3028416037	 0.306975
H	-1.2374834896	 0.4920096491	-1.4499581114	 0.08903
H	-2.1899930149	-2.0502309562	-1.200283628	 0.089768
H	-1.2410468431	-4.1964809489	 0.2381093876	 0.264115
H	 0.1771619718	-5.2616002627	 1.6088355266	 0.089217
H	 1.2969926965	-1.7162490307	 1.1166192312	 0.292305
