19
gdb 11036	3.94875	1.6844	1.39463	2.9169	70.8	-0.2401	0.0677	0.3077	945.5016	0.166755	-365.054935	-365.047167	-365.046223	-365.086507	30.408	
C	 0.0126392101	 1.4846073645	-0.0399992241	-0.466365
C	-0.0301568916	-0.0187569499	 0.0619778453	 0.340701
C	-1.3099112653	-0.7477080618	-0.3447006373	-0.273487
C	-1.1592654596	-2.1720146376	 0.2281975463	-0.288799
C	-0.2241389523	-2.0239924753	 1.4556482555	 0.122112
O	 0.6072176661	-3.1542879555	 1.6819125608	-0.43719
C	 0.6233862324	-0.80599129	 1.1472195801	-0.058691
N	 1.2394610464	-0.7200565346	-0.1854834956	-0.369007
H	 0.9778801959	 1.864537725	 0.302899689	 0.129801
H	-0.1247210812	 1.8080650795	-1.0784710626	 0.117028
H	-0.7805821808	 1.9435329306	 0.5609413559	 0.110484
H	-2.1684414035	-0.2354295555	 0.1065513349	 0.102565
H	-1.4726407409	-0.7406600361	-1.428997438	 0.101057
H	-2.1194865863	-2.6268460609	 0.4867175138	 0.097473
H	-0.6757194045	-2.8419997224	-0.4903534014	 0.110209
H	-0.8193241122	-1.8059392261	 2.3577943665	 0.065499
H	 0.0424591029	-3.8987792115	 1.9122421058	 0.282213
H	 1.1906960101	-0.3508324728	 1.9539215214	 0.085855
H	 1.1144932042	-1.5878774895	-0.7008060962	 0.228542
