20
gdb 114474	3.28274	1.24364	1.13548	3.0186	77.62	-0.2273	0.0689	0.2962	1147.565	0.172343	-403.066706	-403.058729	-403.057785	-403.099267	31.643	
O	-0.0170520244	 1.5698460429	 0.0758335719	-0.424956
C	 0.0702321973	 0.1530072931	 0.2098320714	-0.097091
C	-1.2805544143	-0.5179676745	 0.0104704344	 0.017786
C	-1.8991516706	-0.5830536583	-1.4308433674	-0.276917
C	-2.1560958785	-2.1102519969	-1.2462188477	-0.021225
C	-1.0770242503	-3.0923028608	-1.7592218938	-0.060112
N	 0.2276166225	-2.3975494584	-1.6775190825	-0.328023
C	-0.3490806395	-3.0172457317	-0.4579738117	-0.060981
C	-1.4210478973	-2.0692679314	 0.1312882797	-0.06038
H	-0.2305686387	 1.7555295558	-0.8440171769	 0.281317
H	 0.8100209344	-0.2682531611	-0.4807467575	 0.110909
H	 0.4234153878	-0.0243673883	 1.2327659457	 0.096395
H	-1.9898474214	-0.0419239645	 0.6959224092	 0.075542
H	-2.8061505011	 0.0115445954	-1.5605284466	 0.093682
H	-1.1971948951	-0.3527132053	-2.2356677893	 0.106793
H	-3.1817954281	-2.4697741827	-1.320938447	 0.069404
H	-1.2109107003	-3.9202255732	-2.4456121548	 0.090036
H	 0.9345855674	-3.0418439426	-2.0296890738	 0.230273
H	 0.2124769732	-3.7738410158	 0.077457957	 0.090146
H	-1.893144783	-2.4660557517	 1.0310519896	 0.0674
