16
gdb 47298	3.17607	1.3414	1.02241	3.5072	67.27	-0.276	-0.0096	0.2664	1119.4696	0.125589	-475.053446	-475.045616	-475.044671	-475.086421	28.887	
N	-0.0537539319	 1.222848374	-0.8336613769	-0.472257
C	 0.0596895249	 0.172196228	-0.1373903641	 0.36519
C	-1.2031095469	-0.5583934666	 0.2757440978	-0.161394
O	-1.3902277337	-0.750422574	 1.6832652818	-0.216583
C	-0.6800242031	-1.693505689	 2.3535497602	 0.414245
O	-1.00879087	-1.997610619	 3.4651270528	-0.309133
C	 0.5552625611	-2.2388688128	 1.6561695	-0.361522
C	 1.5540240982	-1.1328740317	 1.2982760644	-0.08424
O	 1.2747226348	-0.395645864	 0.1043021908	-0.24788
H	 0.8718373425	 1.5699945319	-1.0969796146	 0.227791
H	-2.0388586268	 0.0603464857	-0.0437401685	 0.164113
H	-1.2594405162	-1.5204289729	-0.2478563606	 0.12973
H	 1.0260946834	-2.9266357441	 2.3611103597	 0.14641
H	 0.2950984554	-2.809685299	 0.7583218053	 0.137894
H	 1.6586991094	-0.4339810797	 2.1380537729	 0.13316
H	 2.5329108786	-1.5783475668	 1.109285569	 0.134475
