14
gdb 44021	4.78443	1.61128	1.40933	2.7328	64.68	-0.258	-0.0157	0.2424	868.9832	0.102311	-436.585304	-436.579552	-436.578608	-436.615274	23.839	
O	-0.0517764214	 0.0076160901	-0.0213099763	-0.309975
C	 0.0395899846	 1.1923094995	-0.0235722657	 0.41367
O	-1.0738533363	 2.0506009547	-0.1042682342	-0.315722
C	-0.3804502203	 3.2967644353	-0.0665160407	 0.377963
C	-0.3832314128	 4.8231248698	-0.0774441942	-0.251643
N	 1.1312158845	 4.4690065345	 0.0266769548	-0.182866
C	 0.7717669787	 3.2750266551	 0.9383624027	-0.033486
C	 1.2909358751	 2.1194498632	 0.0539256744	-0.245323
C	 0.8956766104	 3.2620359138	-0.9080455913	-0.03349
H	-0.6462640669	 5.3351350489	-1.0057915782	 0.129388
H	-0.76745401	 5.3478491244	 0.8001704333	 0.129389
H	 0.7343515707	 3.3691801304	 2.0223050576	 0.107327
H	 2.2555893158	 1.6228140388	 0.1221605409	 0.107441
H	 1.003499078	 3.3409608814	-1.9884813833	 0.107327
