17
gdb 82434	2.48905	1.83735	1.25434	4.1209	69.25	-0.2515	0.0253	0.2768	999.0985	0.137995	-455.128507	-455.120944	-455.119999	-455.160515	29.567	
O	 0.1976471516	 1.1659020756	 0.4620359034	-0.440199
C	-0.0330613819	-0.1223466935	-0.0355377526	 0.079661
C	-1.5068845402	-0.4621446586	-0.072750742	-0.062321
N	-2.1993201759	-0.1855876242	-1.3449309945	-0.322888
C	-1.8950978836	-1.5724294234	-0.9650852847	-0.058193
C	-0.8012945807	-2.2502926586	-1.7614019184	-0.084593
O	 0.2507345495	-1.366362815	-2.1636550096	-0.246085
C	 0.5747676348	-0.2830220294	-1.4225420129	 0.38677
N	 1.3917395656	 0.5970262831	-1.8225196423	-0.551962
H	 0.8142067867	 1.5713913828	-0.1718057999	 0.29774
H	 0.4533317241	-0.8717787608	 0.6183725938	 0.088764
H	-2.0425717343	-0.3080223571	 0.859509028	 0.100565
H	-3.179747986	 0.0225908027	-1.1788642482	 0.239857
H	-2.7057361616	-2.2343384026	-0.6688210373	 0.098214
H	-0.3778435124	-3.0751083947	-1.1718595593	 0.117185
H	-1.1913479293	-2.6676522383	-2.6945451333	 0.129062
H	 1.7366399636	 0.4002667121	-2.7611776204	 0.228422
