18
gdb 10311	2.45499	1.76642	1.09148	0.6394	70.56	-0.2623	0.0387	0.301	1098.9195	0.149473	-384.88907	-384.87909	-384.878146	-384.923753	35.185	
C	 0.2400271063	 0.5991244351	-1.2739024845	-0.238503
O	-0.1559329381	 0.235089071	 0.0326502435	-0.239259
C	-1.3853994703	-0.4674636014	 0.0895581617	-0.050695
C	-1.2927918981	-1.7890550597	-0.5434453517	 0.352793
C	-1.1783950658	-2.8606425965	-1.0754196141	-0.466747
C	-1.7760388153	-0.5727492548	 1.5772203658	 0.107134
C	-1.8259946176	 0.7960947941	 2.2504806189	-0.409132
O	-3.0448303898	-1.2118563256	 1.584070181	-0.43331
H	 1.1780789167	 1.1503071816	-1.1778887166	 0.127363
H	 0.4006804693	-0.2811783205	-1.9097362475	 0.123488
H	-0.5088580682	 1.247231256	-1.7548857105	 0.105104
H	-2.1762900861	 0.1113072221	-0.4183407562	 0.097231
H	-1.0921660453	-3.8121351538	-1.5391964348	 0.196499
H	-1.0184658827	-1.2007788926	 2.0700204622	 0.083323
H	-0.8538435356	 1.289881174	 2.1981009008	 0.138416
H	-2.5741685375	 1.4311822171	 1.7646924513	 0.119424
H	-2.1035094783	 0.688116419	 3.3051365583	 0.101252
H	-3.3040751838	-1.3445365951	 2.5006500823	 0.285618
