21
gdb 100170	2.02879	1.35825	1.1217	2.9396	78.85	-0.2461	-0.0403	0.2059	1245.5508	0.177473	-424.260613	-424.249409	-424.248465	-424.297537	39.19	
C	 0.1611564149	 1.6334041206	 0.1274010047	-0.4178
C	 0.022455847	 0.1112167369	 0.0112620275	-0.182539
C	-1.4278866129	-0.4509284404	 0.055378236	 0.03744
C	-2.1493513022	-0.0570432807	 1.3628311458	-0.45012
C	-2.1761534745	 0.1215449088	-1.143065037	 0.150164
O	-2.1850873529	-0.3678424381	-2.2442823093	-0.265614
C	-1.36335642	-2.0004493429	-0.0081125337	 0.385504
C	-2.6136663203	-2.7538301942	-0.4199134943	-0.486986
O	-0.3505393619	-2.5859810913	 0.2925949972	-0.304673
H	 1.2182148802	 1.910992158	 0.0779040878	 0.126225
H	-0.3503820197	 2.1628504136	-0.6832593378	 0.120925
H	-0.2295574958	 2.0149784065	 1.0755313599	 0.120336
H	 0.4793991334	-0.2287756597	-0.9239475297	 0.121228
H	 0.5771430654	-0.3828741419	 0.8134310343	 0.124688
H	-2.3140889603	 1.0236033078	 1.4072581856	 0.130864
H	-3.1266505721	-0.5411253251	 1.4516183642	 0.126874
H	-1.5494550393	-0.3450021645	 2.2305525155	 0.140534
H	-2.7066685027	 1.0813271083	-0.945276509	 0.081197
H	-2.6754316201	-2.7400642035	-1.5124178545	 0.175036
H	-2.5419119246	-3.7860257225	-0.0749712126	 0.141108
H	-3.5289367717	-2.2894137756	-0.0418758407	 0.12561
