12
gdb 42167	1.76359	1.44934	1.23215	3.1386	71.35	-0.2853	-0.0901	0.1952	1099.124	0.073493	-398.286561	-398.277394	-398.276449	-398.321501	31.474	
O	 0.3416755383	 1.7235787873	-1.8373057982	-0.259553
C	-0.0283990685	 1.6546341755	-0.6941501379	 0.262199
C	 0.827982628	 1.3166593113	 0.4138575367	 0.308772
C	 1.5405969192	 1.0543973532	 1.3468331796	-0.428062
C	-1.5316603759	 1.9198510061	-0.3355286706	-0.392975
C	-2.1609523554	 0.6811473826	 0.1131761429	 0.312081
C	-2.646717125	-0.3609549666	 0.4561383789	-0.416682
C	-1.645587102	 2.9933514898	 0.6599883296	 0.288056
N	-1.7151376956	 3.8529412232	 1.4278031378	-0.308649
H	 2.1747974581	 0.8223319478	 2.1686757043	 0.232976
H	-1.9873075537	 2.261061449	-1.272384387	 0.181903
H	-3.0879778975	-1.2772218793	 0.7644361639	 0.219933
