19
gdb 16012	3.97355	1.7598	1.40684	1.3334	78.67	-0.2222	0.0174	0.2396	934.9073	0.168518	-327.923637	-327.916638	-327.915694	-327.954591	28.224	
C	 0.0089605854	 1.5163315254	 0.0007813163	-0.297253
N	 1.2649018843	 0.7521397301	 0.0141536731	-0.353094
C	-0.0375317687	 0.0289782178	 0.0100415647	 0.347811
C	-0.3714710493	-0.7180876603	 1.289624255	-0.270259
C	-0.0703503218	-2.2145732632	 1.1327431399	-0.213412
C	-0.8759067975	-2.8159100648	-0.0284200875	-0.248425
C	-0.8191202806	-1.9489281905	-1.2595395477	-0.07528
C	-0.4275880483	-0.672827341	-1.2365067694	-0.113121
H	-0.2024194226	 2.0619265332	 0.9172784434	 0.115502
H	-0.2840978985	 2.0346202424	-0.909413225	 0.108297
H	 1.6667709585	 0.7344053402	-0.9211852299	 0.226096
H	 0.2005710606	-0.2856755154	 2.1153816481	 0.10525
H	-1.4374725746	-0.5803780205	 1.5166399591	 0.094827
H	 1.0008162126	-2.339466545	 0.9326784098	 0.108689
H	-0.2866946047	-2.75015073	 2.0627672762	 0.090618
H	-0.5057828042	-3.8205179703	-0.2677207195	 0.102671
H	-1.9257528409	-2.9561113021	 0.2719228259	 0.10756
H	-1.1140636834	-2.4019512824	-2.2029250582	 0.086098
H	-0.3808300564	-0.0952922337	-2.1584379244	 0.077424
