15
gdb 66447	2.59929	1.72055	1.3645	1.458	64.59	-0.2117	0.045	0.2567	950.7073	0.109761	-457.62635	-457.618474	-457.61753	-457.658104	31.235	
O	 0.121945708	 1.3747757074	 0.1671506821	-0.454874
C	 0.0391622199	 0.0120726908	 0.0483292087	 0.303729
C	 0.8640488257	-0.9968230148	-0.7457002282	-0.171094
C	 0.8900251568	-0.994869031	 0.7903441785	-0.239007
C	-0.2987418463	-2.0188834393	 0.804999344	 0.299439
O	-0.5863498658	-3.0852685632	 1.6146351497	-0.450674
C	-0.3226571702	-1.9977980565	-0.7182267906	-0.191353
C	-1.1824409437	-1.0049247754	 0.0612177936	 0.201969
O	-2.5379434323	-0.855441503	-0.0612858407	-0.452519
H	-0.1345042186	 1.7683798392	-0.6751147932	 0.29229
H	 1.6843837456	-0.8590212918	-1.4394050968	 0.089742
H	 1.7184654285	-0.8055561219	 1.4605765392	 0.09586
H	-0.9302263519	-2.7546505844	 2.452824003	 0.287292
H	-0.6601180088	-2.7579056123	-1.4098278569	 0.098415
H	-2.893581437	-0.5519373338	 0.7820563077	 0.290786
