15
gdb 2472	4.43141	2.67621	2.40783	2.7737	55.96	-0.2452	0.0777	0.3229	625.0765	0.125969	-345.642008	-345.635827	-345.634882	-345.671816	23.717	
O	-0.5400489087	 1.2479984273	 0.7289735908	-0.42812
C	-0.0285826676	 0.1039712958	 0.0614961429	 0.123064
C	 0.8603177773	-0.7875327291	 0.9761991185	-0.270287
C	-0.0692364122	-1.8584761475	 1.5101627036	 0.058456
O	-1.2798016499	-1.3407325594	 2.0706828233	-0.247627
C	-1.3149064781	-1.8499375229	 0.7326099642	 0.052501
C	-1.2385318601	-0.7760858163	-0.3336051519	-0.23992
H	 0.2055953133	 1.7610293807	 1.0559767208	 0.27858
H	 0.5339196678	 0.4144562558	-0.830765934	 0.065128
H	 1.6652171043	-1.2596111901	 0.3992583599	 0.100272
H	 1.3273328222	-0.197169752	 1.7722377745	 0.102292
H	 0.3265701582	-2.7509183344	 1.9900761051	 0.089624
H	-1.9272370417	-2.7367554719	 0.5856975768	 0.089519
H	-2.1413347347	-0.1625966651	-0.3914865685	 0.127497
H	-1.0815548401	-1.2455193508	-1.3115570859	 0.099022
