25
gdb 86538	3.06995	0.96768	0.91646	1.3128	88.84	-0.2583	0.065	0.3233	1469.9103	0.226661	-389.495263	-389.484584	-389.48364	-389.530327	41.059	
C	-0.3889462817	 1.4090709964	 0.2105565509	-0.389763
C	-0.1342212034	-0.0880273155	 0.3595861121	 0.026963
C	 0.858502474	-0.6751238051	-0.6877588239	-0.268312
C	 1.982813449	-0.6359078988	 0.3889489735	 0.06621
C	 0.8857398929	-0.4605704143	 1.4756029383	-0.256226
C	 2.9524913163	-1.8240903683	 0.5110173908	 0.306378
C	 3.8271896826	-1.9357114126	-0.7455038466	-0.42562
C	 3.8176645692	-1.6728025745	 1.7650097418	-0.394233
O	 2.2310459146	-3.0487178877	 0.7062174261	-0.458468
H	 0.5501888415	 1.9707414183	 0.1434221377	 0.111488
H	-0.9687494649	 1.6245762368	-0.6939338368	 0.110428
H	-0.9470288186	 1.8008039118	 1.0681860044	 0.112506
H	-1.0917887997	-0.6139295006	 0.4223851775	 0.064154
H	 0.5868374171	-1.6976299268	-0.9713534331	 0.076394
H	 1.0151381491	-0.0969119805	-1.6029962752	 0.092012
H	 2.5757680857	 0.2787264502	 0.2806012716	 0.062874
H	 1.0597761385	 0.2869058275	 2.2548435659	 0.087191
H	 0.6514169539	-1.4195023686	 1.9442162964	 0.111402
H	 4.4407915784	-1.0397777363	-0.8845073917	 0.1135
H	 4.4910428146	-2.8019132519	-0.6690394812	 0.118864
H	 3.2100777675	-2.0555332587	-1.6439167377	 0.107774
H	 3.1904328874	-1.6361449259	 2.6597724568	 0.12497
H	 4.496476927	-2.5248969126	 1.8610459426	 0.116289
H	 4.4119798753	-0.7553457239	 1.7197166232	 0.107534
H	 1.8039273937	-3.2761143887	-0.1259200733	 0.275692
