22
gdb 114044	2.66918	1.1839	0.9682	1.9881	83.52	-0.1957	0.0745	0.2702	1330.0063	0.19236	-404.296376	-404.286502	-404.285557	-404.330807	37.218	
C	-0.5206461969	 1.5574712452	-0.3181890589	-0.374779
C	-0.4976059479	 0.0425150433	-0.1179566918	-0.128103
N	 0.3996236582	-0.5941076215	-1.0679116748	-0.059462
C	 1.8757052331	-0.504514089	-0.9203658559	-0.256473
C	 1.9734507999	-2.0196581563	-1.1641425108	 0.331495
O	 2.8594424125	-2.5852351208	-2.0642305378	-0.458566
C	 1.209405846	-2.8071077945	-0.1294963127	-0.076359
C	 1.2020060404	-2.5657731172	 1.365973392	-0.426279
C	 0.4572359228	-2.0415365509	-1.2174446224	-0.099144
H	 0.4693427197	 1.9921171656	-0.1411229265	 0.115564
H	-0.817765592	 1.8056289084	-1.3411499022	 0.123023
H	-1.2201271951	 2.0314051365	 0.3776196093	 0.108858
H	-0.2522068701	-0.1820584435	 0.9347953724	 0.077506
H	-1.4983197393	-0.3694528008	-0.2971958917	 0.100632
H	 2.3406566617	 0.0825486337	-1.7193679817	 0.111001
H	 2.2360178019	-0.1368312271	 0.0510249826	 0.087483
H	 3.6125348793	-2.9282979059	-1.5715166777	 0.285308
H	 1.2266807212	-3.8638122751	-0.3989005905	 0.088607
H	 0.2567242805	-2.8875867244	 1.8161860249	 0.120013
H	 2.0069974412	-3.130817452	 1.8506712765	 0.110623
H	 1.3463707736	-1.5135345402	 1.6197535479	 0.12392
H	-0.2116044706	-2.5503055034	-1.9048353904	 0.095132
