14
gdb 29465	3.46157	1.63685	1.11304	2.435	68.65	-0.1948	0.024	0.2188	1004.0163	0.103466	-436.700736	-436.693887	-436.692943	-436.731757	27.1	
N	-0.0052606442	 1.4340579328	 0.1676031413	-0.603596
C	 0.0409358828	 0.0420744489	 0.0364523648	 0.051851
C	-1.0089378238	-0.8357462792	-0.0038263217	-0.108147
O	-0.5728203735	-2.173331072	-0.0398192981	-0.216808
C	 0.7481419382	-2.0504494592	-0.0344138039	 0.424221
C	 1.2302548941	-0.7773951997	 0.0141564087	 0.167911
C	 2.6612842192	-0.9464587673	 0.0197510434	-0.367844
C	 2.8732026756	-2.2906495833	-0.0272692187	-0.014367
O	 1.6780235156	-3.0063778275	-0.0615505665	-0.209061
H	 0.706441999	 1.9013785452	-0.3793526027	 0.248333
H	-0.911736813	 1.8241140015	-0.056036366	 0.245392
H	-2.0772528975	-0.7100719942	 0.002528108	 0.12608
H	 3.4352697731	-0.196001703	 0.0589584048	 0.11576
H	 3.7591454845	-2.9014427728	-0.0414795332	 0.140275
