16
gdb 87656	2.91056	1.24652	1.06754	5.5963	65.87	-0.2521	0.0031	0.2552	1141.0891	0.123182	-475.008557	-474.999995	-474.999051	-475.041774	32.002	
N	 0.2792852072	 1.2686197436	-0.3204922811	-0.507114
C	 0.0776501395	-0.1156387812	-0.0045430141	-0.247925
C	 0.0461209719	-0.5102300396	 1.4904652381	 0.438713
O	 0.6991896308	-0.3575716477	 2.467774355	-0.309206
O	-1.1495245605	-1.198274117	 1.3762649409	-0.272845
C	-1.2964735094	-0.806287214	-0.0034438128	 0.432677
C	-2.589170369	-0.3458081714	-0.5894742848	-0.399604
C	-1.9341731412	-1.6566638454	-1.0288679672	 0.004215
O	-1.2625809246	-1.7269889775	-2.2511512734	-0.420844
H	 0.3189362566	 1.4117474916	-1.3230528958	 0.244491
H	-0.4601359259	 1.8532389714	 0.0542240755	 0.239903
H	 0.8189685918	-0.7179020957	-0.5381036922	 0.140142
H	-3.4877186307	-0.4125744116	 0.0145017109	 0.135462
H	-2.5414068923	 0.4986339146	-1.2717956695	 0.117399
H	-2.4149685511	-2.5750881663	-0.6924182542	 0.109983
H	-1.9192564532	-1.8057445137	-2.9516186453	 0.294554
