15
gdb 128692	2.74401	1.33162	0.90164	3.7955	71.42	-0.2393	-0.0378	0.2015	1218.5684	0.113532	-453.971712	-453.963506	-453.962562	-454.004925	29.129	
C	-0.0561024296	 1.3865599415	 0.0077181066	-0.239734
O	-0.0269729336	-0.0411292523	 0.0032279164	-0.259912
C	-1.2148719978	-0.6533659477	 0.0106110646	 0.401785
N	-2.3691611602	-0.005351799	 0.0216349591	-0.329312
N	-3.2954463647	-1.0079623255	 0.0257195932	-0.205301
C	-2.7597992119	-2.2354748968	 0.0177848352	-0.072756
C	-1.3798596176	-2.0718088221	 0.0074896738	-0.00354
C	-0.3670137593	-3.1148464108	-0.0036809568	 0.058621
O	-0.6090716088	-4.304882053	-0.0049670758	-0.29615
H	 0.9867780953	 1.7047057924	 0.0004040637	 0.134887
H	-0.5766025868	 1.7673443272	-0.8764755557	 0.138436
H	-0.5624952726	 1.7620350526	 0.9023155953	 0.138433
H	-4.2696111387	-0.7584074107	 0.0340365377	 0.283706
H	-3.3536175672	-3.1355297316	 0.0196354384	 0.171703
H	 0.6780599235	-2.7405535642	-0.0102141057	 0.079134
