16
gdb 51143	3.13222	1.24881	0.98506	3.611	72.81	-0.2475	-0.0264	0.2211	1185.0353	0.122943	-437.863542	-437.855216	-437.854272	-437.897671	30.073	
N	-0.1092700671	 1.3087894248	-0.1125204388	-0.436792
C	-0.0493760453	 0.0531594539	-0.0579346118	 0.112379
O	-1.1982964046	-0.6556220382	 0.1296016579	-0.222337
C	-1.0671473483	-2.0307883782	 0.1213862849	 0.324958
C	-1.297374786	-2.8482491772	-1.1449907685	-0.339613
C	-2.181470995	-3.0920436267	 0.0348222617	-0.137677
C	-1.4422879974	-3.9971791237	 1.0356003839	-0.353913
C	-0.3879999301	-2.8643005085	 1.1727236034	 0.34885
O	 0.4926063491	-2.6381029875	 1.9515852356	-0.311552
H	 0.8234222601	 1.6962261659	-0.239512846	 0.235778
H	 0.8419444267	-0.5786204236	-0.1324563057	 0.111488
H	-1.7242662144	-2.2451383029	-1.939986083	 0.144055
H	-0.5847961636	-3.6010350957	-1.47144016	 0.125965
H	-3.2454325045	-2.901008484	 0.026922117	 0.127555
H	-1.9601414709	-4.1387663675	 1.9882455799	 0.143505
H	-1.0993633284	-4.9648518611	 0.6595180196	 0.127353
