17
gdb 67575	3.03418	2.01152	1.51765	1.4989	70.53	-0.2282	0.0702	0.2984	877.7067	0.138614	-417.902583	-417.896313	-417.895369	-417.932746	27.088	
O	 0.0967640581	 1.3587037246	 0.1271900097	-0.496485
C	 0.0265508141	-0.0141895171	 0.0964811043	 0.488453
C	 0.86953351	-0.778972096	 1.092114886	-0.100186
C	 0.1743219786	-1.7006494323	 2.0270787012	-0.243676
N	 0.617351014	-2.1895488913	 0.7064759726	-0.120339
C	-0.3836716697	-1.9855140715	-0.3576210605	-0.006189
C	-1.3319359156	-0.765782801	-0.100923395	-0.1462
N	-1.3032033554	-0.3527232161	-1.5526359042	-0.376588
C	 0.098525353	-0.822788142	-1.2678412472	-0.10529
H	-0.4663939854	 1.6642144519	-0.5994267446	 0.293723
H	 1.8971397353	-0.4700193325	 1.2568856881	 0.103099
H	 0.7272549071	-2.1200425251	 2.8623901307	 0.122118
H	-0.8879721607	-1.5669750252	 2.2096674611	 0.120073
H	-0.783903996	-2.8987690754	-0.7982001469	 0.08094
H	-2.2440744408	-0.6961834357	 0.4929513941	 0.084695
H	-1.7981785271	-1.0404625524	-2.1267923337	 0.214839
H	 0.8859770504	-0.822952003	-2.0227280057	 0.087012
