19
gdb 88807	2.89691	1.27307	1.06267	1.9873	76.63	-0.2245	0.0203	0.2448	1183.5233	0.159628	-419.165592	-419.156989	-419.156045	-419.199232	31.978	
C	 0.8023222489	 1.5320032414	-0.3047300963	-0.345268
N	 0.1633284178	 0.2404748905	-0.0610812905	-0.090875
C	 1.0299025502	-0.9070659845	 0.190391755	-0.254338
C	 0.1936655075	-0.3262951623	 1.281750646	-0.016523
C	 0.7861867077	 0.3865675685	 2.4867949602	-0.168479
C	 0.8054833683	-0.4160182884	 3.8099558105	-0.105092
O	 2.2547130404	-0.2508612189	 3.898884988	-0.246279
C	 2.2910705557	 0.4382300505	 2.7092667111	 0.4428
N	 3.2637247983	 0.9228653781	 2.0819537051	-0.541041
H	 1.7449317926	 1.6848661446	 0.2388765638	 0.15363
H	 1.0050576188	 1.6149456175	-1.376994316	 0.121955
H	 0.102574676	 2.3315128584	-0.0377305967	 0.113884
H	 0.7394340862	-1.8382175359	-0.2899090477	 0.109757
H	 2.1014965007	-0.7290813823	 0.2478215724	 0.133458
H	-0.734375139	-0.8371660169	 1.5417167051	 0.093416
H	 0.3303408066	 1.3750401244	 2.6056883187	 0.118585
H	 0.3063358865	 0.0361861511	 4.6695486907	 0.123499
H	 0.5402491818	-1.4728243309	 3.7229669378	 0.125645
H	 4.146091675	 0.7550309651	 2.5680083829	 0.231267
