21
gdb 112929	2.55015	1.31508	0.91574	1.4951	81.57	-0.249	0.0162	0.2652	1323.4687	0.181821	-424.232662	-424.223392	-424.222448	-424.266736	34.602	
C	 0.0602678777	 1.4156829985	 0.0812478461	-0.236302
O	 0.011709974	-0.0002036374	 0.0512493039	-0.243703
C	 0.660847659	-0.5625545306	-1.0428951681	 0.189111
O	 2.0466434246	-0.2828453609	-0.948006188	-0.278936
C	 2.8328196935	-1.0145884921	-1.8838427898	 0.142994
C	 4.2437471322	-0.4507308993	-1.8266259452	-0.403673
C	 2.7616080634	-2.5144738366	-1.5650856075	-0.258037
C	 1.3432365084	-2.9308020828	-1.2796634662	-0.0714
C	 0.3824505852	-2.0418057151	-1.0484618841	-0.086221
H	 1.0836837477	 1.7822299447	 0.2143619923	 0.128888
H	-0.3519934813	 1.8465497556	-0.8442073238	 0.10206
H	-0.5536586052	 1.7344796852	 0.9263083925	 0.125007
H	 0.2777669318	-0.095509142	-1.9773769382	 0.050618
H	 2.4189334681	-0.8586029092	-2.8956751924	 0.066401
H	 4.653550921	-0.5592714179	-0.8176098951	 0.126357
H	 4.897933552	-0.9797512679	-2.5265336038	 0.113843
H	 4.2433323552	 0.6116141047	-2.0844578899	 0.121315
H	 3.1673920597	-3.0911544392	-2.4062792892	 0.103294
H	 3.4006473057	-2.7430864207	-0.7000327946	 0.113842
H	 1.1216910436	-3.994940782	-1.2634239832	 0.093454
H	-0.6452680764	-2.3306656851	-0.8545583255	 0.101087
