16
gdb 7781	3.69695	1.74831	1.24677	3.7739	61.14	-0.2662	0.0064	0.2727	946.3652	0.130974	-420.920282	-420.912865	-420.911921	-420.952207	27.259	
C	 0.0272153297	 1.5450527463	 0.074336225	-0.409112
C	 0.0192271962	 0.0273318886	 0.0428756095	 0.110865
C	 0.5863825149	-0.5619714561	-1.2508947283	-0.338215
C	 0.941491748	-2.0400699064	-1.1559110433	 0.401883
O	 1.095111466	-2.741604645	-2.1160493644	-0.318555
O	 1.1684605015	-2.5403082608	 0.0856638795	-0.228697
C	 0.7337916737	-1.8164280304	 1.2484231732	 0.021112
O	 0.8267440672	-0.4430336557	 1.1250154455	-0.230951
H	 1.0494603506	 1.9210776152	-0.0301316349	 0.132919
H	-0.5763152176	 1.9458482494	-0.7452876396	 0.125969
H	-0.381194827	 1.9106063027	 1.0199203212	 0.13149
H	-1.0097274729	-0.3413194149	 0.1928428922	 0.08039
H	-0.092361534	-0.4343497738	-2.0974347507	 0.138042
H	 1.5193676073	-0.0422822638	-1.5031992193	 0.145094
H	-0.3018605931	-2.1296234228	 1.458077864	 0.102913
H	 1.3952835696	-2.1289791023	 2.0578628102	 0.134851
