18
gdb 56599	3.62841	0.99028	0.90239	3.0444	72.15	-0.2615	0.0073	0.2688	1305.552	0.147682	-435.228502	-435.218931	-435.217987	-435.263212	34.678	
N	-0.0808733232	 1.5438758311	 0.0013948664	-0.519562
C	-0.0036899628	 0.0836364605	-0.0510043193	-0.166918
C	-1.3449412528	-0.4771936389	 0.1653383141	 0.294373
N	-2.3992889915	-0.9229163902	 0.3179535663	-0.309372
C	 0.6284544457	-0.5151019485	-1.3433373807	 0.09492
O	-0.1045231455	-0.165629432	-2.5018349942	-0.424973
C	 2.0912688459	-0.0957103232	-1.4475865587	-0.007987
C	 2.8197436961	-0.1946039273	-2.7295515562	-0.251955
N	 2.4671257841	 1.1303712543	-2.1761615409	-0.32484
H	 0.800826837	 1.963383333	-0.2753725168	 0.263249
H	-0.8301542181	 1.917488482	-0.569601452	 0.242502
H	 0.6226487801	-0.2466902693	 0.7884626611	 0.141329
H	 0.5787677672	-1.6080689696	-1.2655912515	 0.117661
H	-0.4669030836	 0.7186833094	-2.3744481894	 0.276823
H	 2.6569807108	-0.2431927517	-0.5286971901	 0.097062
H	 3.8804462113	-0.4254929797	-2.731375887	 0.124628
H	 2.2616731907	-0.5408960049	-3.5938982208	 0.133497
H	 1.6524481885	 1.4555217951	-2.6939914004	 0.219563
