19
gdb 74609	4.26101	1.36424	1.2982	0.3527	84.65	-0.209	-0.0151	0.194	1049.4396	0.160951	-348.715343	-348.708341	-348.707397	-348.746288	29.404	
C	-0.0495888114	 1.4616010687	 0.0694743075	-0.510828
C	-0.008409534	-0.0250053761	-0.0103473721	 0.326031
C	-0.0465081228	-0.8597111935	-1.0542283323	-0.221191
C	 0.0354369015	-2.245850958	-0.4205369499	-0.050849
C	-0.9180976238	-2.146811175	 0.8421933655	-0.054475
C	-0.4685647593	-3.3021963164	 1.7350435178	-0.106542
C	 0.8632901218	-3.2608347385	 1.653310332	-0.106538
C	 1.1280968993	-2.083253882	 0.7166371767	-0.054483
C	 0.0947621391	-0.9795552847	 1.1874245442	-0.107138
H	 0.8490665418	 1.8626619282	 0.5563767028	 0.125524
H	-0.1258117632	 1.9124012775	-0.9243787797	 0.123571
H	-0.9035577198	 1.8082326603	 0.6661810972	 0.125499
H	-0.1183492957	-0.6332097043	-2.1096322822	 0.093277
H	 0.0243875576	-3.1363505611	-1.0513733639	 0.055866
H	-1.9817162859	-1.9373745483	 0.7164327642	 0.055766
H	-1.109265934	-3.9782692577	 2.2839947529	 0.098864
H	 1.6068099825	-3.893921768	 2.1173138761	 0.098864
H	 2.1533937294	-1.8089343434	 0.46270752	 0.055764
H	 0.1440732167	-0.5695098577	 2.1986524534	 0.053019
