15
gdb 23509	4.55555	1.28026	1.13363	1.9602	80.87	-0.2093	-0.0738	0.1355	1044.6243	0.112592	-416.625896	-416.619011	-416.618067	-416.657016	27.751	
O	-0.1423702226	 1.3585588859	 0.0205444451	-0.380848
N	-0.0196257865	-0.0259415482	-0.1558222141	-0.259142
C	-1.1117018414	-0.6259444852	 0.1421337432	 0.415264
C	-2.4832597329	-0.1111883192	 0.2854800492	-0.159899
C	-3.2645056958	-1.1998153591	 0.5055819423	 0.049839
N	-3.8188168357	-1.839489537	-0.7208378252	-0.356502
C	-2.6231030198	-2.7792320331	-0.4718442288	-0.019353
C	-2.4646187758	-2.4349097007	 0.9530090787	-0.148001
C	-1.2782629582	-2.1161719961	 0.0833057449	-0.13396
H	 0.7018499615	 1.6825996463	-0.3115201874	 0.308955
H	-2.7971602196	 0.7444788667	-0.3006855104	 0.133648
H	-4.6178961881	-2.4338733789	-0.4776326749	 0.228712
H	-2.5820317859	-3.7346274927	-0.9876760576	 0.11222
H	-2.5041252306	-3.0022144745	 1.8744771058	 0.107317
H	-0.4118894885	-2.7703034143	 0.0422883891	 0.101751
