25
gdb 113695	2.78953	0.93029	0.86083	1.3531	89.41	-0.257	0.0735	0.3305	1519.2605	0.226579	-389.475266	-389.46418	-389.463236	-389.51135	41.758	
C	 0.9228458998	 0.449274002	 0.8986909277	-0.420331
C	 0.2400034831	-0.9187173423	 0.7264212705	 0.236269
C	 0.8735827795	-1.9229099561	 1.7102181069	-0.397388
C	-1.2572777731	-0.7545424061	 1.0662018351	-0.391827
C	 0.3164090876	-1.5138530809	-0.6866719617	 0.004555
C	 0.2509221684	-0.7414234933	-1.9813925078	-0.319076
C	 1.4772614682	-1.5638147921	-1.6603206247	 0.000364
C	 2.8291721441	-0.9181957456	-1.4864710536	-0.109794
O	 3.4660948324	-0.9465504521	-2.7606314412	-0.422362
H	 2.0103165719	 0.3840931427	 0.8136118379	 0.114349
H	 0.5636090513	 1.1824825094	 0.1700904194	 0.112337
H	 0.7019068224	 0.84670801	 1.8953407163	 0.108358
H	 0.7845222105	-1.5714550186	 2.7443402953	 0.104935
H	 0.3828449982	-2.9003241117	 1.6470779025	 0.107276
H	 1.9369118438	-2.0694725299	 1.493861997	 0.111637
H	-1.7386645624	-0.0437741838	 0.3864733316	 0.113454
H	-1.7895475755	-1.708355728	 0.9832929814	 0.106383
H	-1.3884981818	-0.3868031888	 2.0897787724	 0.104193
H	-0.257705391	-2.439116585	-0.7165803049	 0.078825
H	-0.4266781851	-1.0718386548	-2.7613142402	 0.107452
H	 0.3740228545	 0.3362827552	-1.9359961964	 0.109917
H	 1.5697549887	-2.5066458128	-2.1940402183	 0.090222
H	 2.7303214485	 0.1138476193	-1.1252364288	 0.085574
H	 3.4252399978	-1.4736966493	-0.7431815019	 0.081906
H	 4.3490307979	-0.5790636773	-2.6583809245	 0.282771
