17
gdb 55164	3.57688	1.26337	1.05711	4.3599	68.69	-0.2378	0.0574	0.2952	1124.828	0.137839	-455.169562	-455.161678	-455.160733	-455.202504	29.869	
N	-0.0579436812	 1.3619498803	 0.0328893756	-0.568097
C	 0.0162379528	-0.028427118	 0.0110416896	 0.446832
O	 1.0793521076	-0.6221432965	-0.0452307388	-0.404858
N	-1.1966930182	-0.6753497569	 0.0244692069	-0.116067
C	-2.4932744816	-0.0405658891	-0.2106806504	-0.215013
C	-3.3167928156	-1.1329490514	-0.8621753387	 0.034906
O	-2.7109156503	-1.6599806999	-2.0432014023	-0.245582
C	-2.5549959799	-2.385099158	-0.8180336803	 0.031211
C	-1.2309334748	-2.1313694094	-0.1346049961	-0.187412
H	 0.8437842221	 1.7756274278	 0.2174612541	 0.26007
H	-0.8135201812	 1.790402855	 0.5456612791	 0.25102
H	-2.9821163206	 0.2830061533	 0.7218828923	 0.102968
H	-2.3837023126	 0.8315222458	-0.8641041459	 0.137375
H	-4.4016791484	-1.0777289719	-0.8567315085	 0.105315
H	-3.0159715183	-3.3676497497	-0.7800869183	 0.106151
H	-0.3668280543	-2.4559660318	-0.7187495989	 0.152376
H	-1.2013598256	-2.6514694696	 0.8332082505	 0.108805
