15
gdb 14285	3.84383	1.88575	1.80854	4.0771	61.57	-0.2477	0.0534	0.3011	796.8339	0.119545	-399.797963	-399.791102	-399.790158	-399.829164	25.742	
C	-0.4443323839	 1.3932209169	-0.1315410887	-0.423754
C	-0.0488285142	-0.0582082978	 0.0150902239	-0.088278
C	 1.3346633569	-0.5891826836	-0.2998490835	 0.040506
O	 2.3884901113	 0.3474416283	-0.3477217279	-0.223288
C	 2.5609829537	 0.9005502223	 0.8825914181	 0.487233
N	 3.418904938	 1.7893210839	 1.1068905198	-0.575434
O	 1.6677807496	 0.3680314575	 1.7768785798	-0.247148
C	 0.8524796894	-0.5783271173	 1.1161822321	 0.030577
H	 0.3691383067	 2.0729332935	 0.1283714295	 0.154888
H	-0.7360278374	 1.60611653	-1.1643813152	 0.131527
H	-1.2944721169	 1.6255870924	 0.5170998028	 0.128864
H	-0.8262231437	-0.7743124052	-0.2443939027	 0.10427
H	 1.517999472	-1.4605552986	-0.914737089	 0.123817
H	 3.3857734649	 2.0717955107	 2.0831425408	 0.234286
H	 0.6214117335	-1.4400654031	 1.7288451701	 0.121935
