17
gdb 86739	3.29665	1.2181	1.03169	10.234	73.91	-0.1987	-0.051	0.1478	1172.3359	0.135894	-455.167967	-455.159411	-455.158467	-455.201993	30.407	
C	-0.1506670738	 1.4098661564	-0.0110955518	-0.338664
N	-0.0385145422	-0.0321209197	-0.0389511873	-0.007539
C	-1.1865331406	-0.9317787177	-0.2822147051	-0.196953
C	-0.5471552134	-2.3160329022	-0.0941463868	-0.146997
N	 0.9076262746	-2.0386774212	-0.0587685015	-0.25131
H	 1.2781805437	-2.732749602	 0.6467464535	 0.294563
C	 1.0660135577	-0.7426266585	 0.1102510409	 0.114302
C	-0.8469512401	-2.9928840268	 1.3106748438	 0.393169
O	-2.0033369713	-2.894608209	 1.7134419144	-0.433206
O	 0.1900937477	-3.5151528586	 1.7963961342	-0.485895
H	 0.8152906722	 1.8509456105	 0.2428029083	 0.15262
H	-0.470977643	 1.7933614834	-0.9862387331	 0.153322
H	-0.8873227214	 1.710099454	 0.7404250701	 0.166671
H	-1.9796362742	-0.7773700922	 0.4582562799	 0.166066
H	-1.5828000952	-0.74985759	-1.2872073342	 0.123568
H	-0.7879898169	-3.0105706857	-0.9000474529	 0.119635
H	 2.0110567562	-0.2821909907	 0.3733383178	 0.176649
