18
gdb 66863	3.63373	1.81266	1.60819	0.859	81.57	-0.2077	-0.0311	0.1767	894.4806	0.148522	-364.701266	-364.694526	-364.693582	-364.731793	28.433	
C	-0.1124708136	 1.5219033598	-0.1091331854	-0.517519
C	 0.1074192086	 0.0446613394	-0.0126942735	 0.360747
C	 0.269503742	-0.8989012627	-1.1410983497	-0.098223
C	 1.1816232498	-1.9880842059	-0.8217119036	-0.111258
C	 1.3335575303	-2.013689746	 0.532198751	-0.003609
C	 0.3274079896	-2.9515869242	 1.2172817745	-0.268155
C	-0.5436150587	-1.6302495315	 1.1415446783	 0.043758
C	 0.7152343942	-0.7404671233	 1.1469444921	-0.149866
N	-0.9921930617	-0.9786865369	-0.1692066217	-0.237826
H	 0.8426351184	 2.0474614958	-0.2212714191	 0.126762
H	-0.7423070076	 1.7656539489	-0.9692950195	 0.132327
H	-0.6051479263	 1.90501512	 0.7909903018	 0.125072
H	-0.0475577802	-0.6268527278	-2.1409472934	 0.101367
H	 1.1984051605	-2.8907418849	-1.4254299814	 0.098368
H	 0.0211317946	-3.8416897349	 0.665996983	 0.114571
H	 0.4974980425	-3.1927276182	 2.2731914375	 0.105535
H	-1.3463202632	-1.5077196466	 1.8713699506	 0.102245
H	 1.1401672209	-0.2949972009	 2.0435121685	 0.075704
