19
gdb 65986	2.4941	1.40344	1.33342	3.1079	76.75	-0.2414	0.0249	0.2663	1090.52	0.158695	-419.167848	-419.159145	-419.158201	-419.201229	32.778	
C	-0.1716620537	 1.4552818701	-0.0267219349	-0.431317
C	 0.0409647087	-0.0554647494	-0.0071064877	 0.160926
C	 1.2093170198	-0.5627197752	-0.915632107	-0.132526
O	 1.9625156023	-0.958121788	 0.2695948674	-0.262157
C	 0.9522649762	-0.5488563702	 1.1168047073	 0.428916
N	 0.8679274133	-0.5830372475	 2.3650145036	-0.543846
N	-1.2563409696	-0.7091192064	-0.0268887526	-0.092386
C	-1.8437192564	-1.0854060081	-1.3070042158	-0.231727
C	-1.3729791793	-2.1233552681	-0.3453198856	-0.232457
H	 0.7799502104	 1.9905695471	 0.0347157367	 0.121621
H	-0.6797755661	 1.7535538383	-0.9497604452	 0.118941
H	-0.7941821509	 1.7445940471	 0.8224513263	 0.151255
H	 1.0104758116	-1.4245490657	-1.5567087232	 0.115789
H	 1.7407013588	 0.2077950172	-1.4794087655	 0.117596
H	 1.7034810507	-0.9935507179	 2.7859081466	 0.227869
H	-2.9029423833	-0.8735840273	-1.4223270278	 0.124482
H	-1.2532699926	-0.9438580423	-2.2113173019	 0.11167
H	-0.4810786976	-2.6878032652	-0.6099134873	 0.119943
H	-2.0841758523	-2.6730579387	 0.2640893865	 0.127409
