18
gdb 80293	2.44826	1.49842	1.23143	3.5986	71.77	-0.2366	0.0268	0.2634	1076.438	0.147618	-439.114603	-439.10609	-439.105145	-439.147431	32.828	
C	-0.1003709491	 1.5421277491	-0.0374673711	-0.432261
C	 0.0292703273	 0.0404401843	 0.0701915413	-0.088957
C	 1.3330105477	-0.7188575625	-0.1780890973	-0.081074
N	 2.5683517539	-0.0004844229	-0.0929747574	-0.296306
C	 2.8269878741	 0.5491190282	 1.1426723903	 0.398693
O	 3.7467706865	 1.2867852246	 1.4116262298	-0.372252
C	 1.7136179531	 0.0625491685	 2.0890548552	-0.424706
C	 0.7330054131	-0.6895792666	 1.2013016189	 0.362221
O	 0.1714913936	-1.8694818579	 1.693852039	-0.464554
H	 0.8283657726	 2.0579101796	 0.2196967534	 0.138788
H	-0.3654764276	 1.8344584857	-1.0591036092	 0.123766
H	-0.8839119575	 1.9195507755	 0.6285393506	 0.121581
H	-0.8348734415	-0.5198871672	-0.2799354803	 0.094624
H	 1.3283497949	-1.6269248058	-0.7695282113	 0.113672
H	 3.0771721183	 0.3282973077	-0.8989741793	 0.252208
H	 2.1385080036	-0.6203701612	 2.8312813447	 0.141617
H	 1.2950002444	 0.9198513438	 2.6236639317	 0.12896
H	-0.5771691274	-1.6331669127	 2.2525302208	 0.28398
