17
gdb 70111	2.42135	1.67258	1.24361	5.2513	77.05	-0.2488	-0.01	0.2388	1041.9098	0.136895	-380.868319	-380.860386	-380.859442	-380.900677	30.459	
C	-0.0845240648	 1.4841949812	-0.0032295566	-0.496933
C	 0.0876885782	-0.0107141915	 0.0302779335	 0.310453
N	-0.7380560655	-0.8425262364	 0.9215129098	-0.347807
C	 0.7390249627	-0.7763978866	 1.1292336838	-0.146195
C	 1.4353976921	-1.9382235228	 0.505460737	-0.043123
C	 1.2422328276	-1.9567173731	-0.8123125387	-0.091483
C	 0.441031196	-0.745322185	-1.2836148605	-0.230865
C	-0.7347265263	-1.0901803983	-2.08470794	 0.289987
N	-1.6536673797	-1.3433849217	-2.7380590595	-0.333291
H	 0.7827212118	 1.9749463458	-0.4579908455	 0.129108
H	-0.9706643558	 1.7623091251	-0.5849301876	 0.14557
H	-0.2052838435	 1.8855944381	 1.0079529946	 0.121156
H	-1.1979092943	-0.2286051392	 1.5929846977	 0.231051
H	 1.1230654282	-0.2925334717	 2.0209710975	 0.097655
H	 1.9873383116	-2.6787722087	 1.0709596873	 0.11464
H	 1.5753438656	-2.7187022156	-1.5053387364	 0.122741
H	 1.0732830362	-0.0972308597	-1.9078892864	 0.127336
