17
gdb 19439	4.05521	1.93468	1.62368	2.4824	67.35	-0.2362	0.0782	0.3144	830.0735	0.143875	-363.820964	-363.814445	-363.813501	-363.851417	26.116	
C	-0.0113567251	 1.4687459871	 0.0086056553	-0.258704
O	 1.173654513	 0.6683776514	-0.0640374828	-0.278029
C	-0.0954385592	 0.0067048549	 0.021429528	 0.462027
C	-0.3748790816	-0.8436727139	 1.2560960407	-0.33843
C	-0.2913519071	-2.2896621764	 0.7047309817	-0.155796
N	-0.5638286907	-2.2504717518	-0.7499694565	-0.096086
C	-1.790467102	-1.5280040938	-1.0997344039	-0.256464
C	-0.4754283441	-0.8346307943	-1.1636147632	-0.098852
H	-0.1452649282	 2.0255554902	 0.9357337169	 0.112753
H	-0.2606721496	 2.0192165914	-0.8981148642	 0.113816
H	 0.3591664648	-0.6436992695	 2.0387284602	 0.123264
H	-1.3658232685	-0.6199770101	 1.663557292	 0.111767
H	 0.7210570754	-2.6866587843	 0.8280292647	 0.119428
H	-0.9839288667	-2.9789326974	 1.1962167916	 0.107723
H	-2.2642487778	-1.8604729242	-2.0185911291	 0.120233
H	-2.4860368115	-1.2474842414	-0.3118157512	 0.109482
H	 0.0042587587	-0.6113977577	-2.1115293503	 0.101869
