16
gdb 86875	2.87384	1.26843	1.03257	3.7142	65.71	-0.2582	-0.0434	0.2147	1144.2389	0.124111	-475.070195	-475.061803	-475.060858	-475.103876	30.541	
O	 0.0057690172	 1.4766672731	 0.1319014001	-0.438325
C	 0.0166595065	 0.0783785831	 0.0325206686	 0.051484
C	-1.3814156239	-0.5459892105	-0.0068086529	-0.268333
C	-1.1773146749	-1.8162230643	-0.8844196481	-0.107042
N	-0.0659200139	-1.4497137854	-1.735226571	-0.293005
C	 0.6522876727	-0.3816727692	-1.285313265	 0.397644
O	 1.6046847548	 0.1540081361	-1.8099006682	-0.390461
C	-0.9139934869	-3.0641984375	-0.048887176	 0.16062
O	 0.0954631706	-3.7140503801	-0.0975301038	-0.236108
H	 0.7721325153	 1.7767446888	-0.3793930797	 0.296075
H	 0.6105770446	-0.3729216669	 0.8467037856	 0.101957
H	-1.7914412187	-0.7808763758	 0.9777696442	 0.121822
H	-2.0598984751	 0.1488288362	-0.5076255078	 0.136659
H	-2.0854402728	-2.0202863327	-1.4696122177	 0.114917
H	 0.2827116656	-2.0470159951	-2.4685825582	 0.265955
H	-1.7614779809	-3.3419698097	 0.6194166301	 0.086141
