19
gdb 94778	3.59119	1.13133	0.99651	2.6686	76.47	-0.2477	-0.0165	0.2312	1211.9609	0.15956	-423.03998	-423.031577	-423.030633	-423.072929	32.244	
O	-0.0883588573	 1.4636422242	 0.0547071323	-0.435467
C	-0.0106702566	 0.046587998	 0.0096874101	 0.128843
C	 0.6941755936	-0.5836164539	 1.2353579881	-0.281399
C	 0.0464351693	-1.9699002952	 1.4224709924	-0.286895
C	-1.3634251067	-1.8178624986	 0.8661964931	 0.255161
C	-2.1611118629	-0.5917357396	 1.2920132448	-0.333026
C	-1.4090052721	-0.5461880413	 0.0068859543	-0.072809
C	-2.1121831986	-3.0123052633	 0.4332156173	 0.079824
O	-1.7031451316	-4.1462767033	 0.5115172171	-0.271332
H	 0.8053745684	 1.8128809145	-0.0212651445	 0.283939
H	 0.4942032031	-0.2743182109	-0.91528608	 0.071841
H	 1.7790445118	-0.6394168487	 1.108960208	 0.098844
H	 0.5045958912	 0.0614778734	 2.0992853967	 0.113617
H	 0.5638165987	-2.7390848878	 0.8406182329	 0.122832
H	 0.0567148553	-2.3027623687	 2.4649292078	 0.110378
H	-3.2417225205	-0.6674964096	 1.227230698	 0.12277
H	-1.8059223813	-0.030026955	 2.1483883731	 0.132192
H	-1.9702623869	-0.5303105554	-0.9206807515	 0.098289
H	-3.1193886169	-2.7922914787	 0.0060048301	 0.062397
