17
gdb 123354	6.68922	0.76575	0.721	1.9393	81.47	-0.2424	0.0166	0.259	1530.8869	0.136833	-380.85773	-380.849297	-380.848353	-380.892031	30.693	
C	-0.012465212	-1.1836310617	-0.0538538782	-0.438429
C	-0.0345883418	 0.0147456112	 0.034244095	 0.293242
C	-0.0148588003	 1.467069529	 0.1341079855	-0.345664
C	 1.3989167292	 2.0385419027	-0.1037270294	-0.155795
N	 1.4152812717	 3.4843866503	-0.0113741749	 0.065221
C	 1.9679118985	 4.2570158409	 0.9579661256	-0.036798
C	 1.6911312703	 5.568351172	 0.6319862891	-0.234681
C	 0.9536239669	 5.4800260902	-0.5658376265	 0.001601
N	 0.7866574882	 4.2175349062	-0.9528679567	-0.27086
H	-0.0125057968	-2.2426003232	-0.1315393419	 0.199145
H	-0.691851965	 1.9141622155	-0.6016468692	 0.162918
H	-0.3684849666	 1.7845040085	 1.122630705	 0.13688
H	 2.0982050604	 1.6454731994	 0.6374667542	 0.13072
H	 1.7516496379	 1.7449272617	-1.0956391275	 0.143687
H	 2.5091743752	 3.8194454282	 1.7821751918	 0.13044
H	 1.9840807458	 6.4518979799	 1.1750176247	 0.105656
H	 0.5425028685	 6.2801341793	-1.1639910864	 0.112715
