21
gdb 92583	2.63462	1.56296	1.30937	1.4468	83.5	-0.2399	0.0146	0.2544	1072.8696	0.184828	-387.094806	-387.086708	-387.085764	-387.127263	32.25	
O	 0.3323970868	 1.4015947924	 0.121120691	-0.430437
C	 0.1632131102	-0.0040888711	 0.0890701257	 0.107632
C	 0.2283872458	-0.5745252483	 1.5276613226	-0.248574
C	-1.3283225385	-0.5758781042	 1.5825319712	-0.01271
C	-1.9477095046	 0.6616132618	 2.2436904764	-0.217084
C	-3.3231104809	 1.0020983946	 1.6456960014	-0.260046
C	-3.2802618388	 1.0606330658	 0.1379541625	-0.047821
C	-2.3706146238	 0.4099220384	-0.5916924614	-0.105396
C	-1.3353685045	-0.4694551458	 0.0289289723	-0.04674
H	-0.2743409963	 1.7876760286	-0.5207550785	 0.280006
H	 0.8347135983	-0.4538095771	-0.6550261365	 0.059518
H	 0.6491065734	-1.5834276603	 1.5480642235	 0.094367
H	 0.7569515066	 0.0520367612	 2.2497670329	 0.105607
H	-1.7884730719	-1.4870621274	 1.9767241727	 0.059232
H	-2.0253498351	 0.515254762	 3.3270768346	 0.0876
H	-1.2841619454	 1.5158842251	 2.0795129891	 0.119405
H	-4.0759379895	 0.263394008	 1.9600577613	 0.108383
H	-3.6746942177	 1.9622649971	 2.0418419601	 0.101509
H	-4.0447413427	 1.6544348681	-0.3582964796	 0.08712
H	-2.3917402156	 0.4828744429	-1.6782038203	 0.083136
H	-1.3644993056	-1.4671123919	-0.4255555108	 0.075293
