16
gdb 5263	7.06868	1.1066	0.96846	1.7531	67.1	-0.2184	0.0251	0.2436	1173.3466	0.130541	-383.750924	-383.743148	-383.742204	-383.784081	27.326	
C	-0.2013047153	 1.4152632667	-0.3891656399	-0.223231
O	-0.2622876632	 0.0173455446	-0.5335144233	-0.231212
C	-0.9974360797	-0.6078590565	 0.4941298665	-0.173234
C	-1.0073713909	-2.083776298	 0.2595030886	 0.216376
C	-0.4133743258	-2.7507670861	-0.7646028675	-0.076363
O	-0.6315478277	-4.0906783739	-0.6564295002	-0.146847
C	-1.3799017948	-4.2783528917	 0.4600959854	 0.008678
C	-1.6428787404	-3.0913584008	 1.0640440747	-0.294051
H	 0.3836766366	 1.8047879022	-1.2256146855	 0.128946
H	-1.2031754244	 1.8730361172	-0.4119500715	 0.105133
H	 0.2873662055	 1.7083084917	 0.5537795336	 0.105136
H	-0.5534316882	-0.3769832476	 1.479529985	 0.09731
H	-2.0300034332	-0.2148421813	 0.5220079929	 0.097281
H	 0.171368128	-2.4270780764	-1.6072438584	 0.145895
H	-1.6395517623	-5.2994084162	 0.6858589395	 0.134106
H	-2.2151953242	-2.943269254	 1.9670116502	 0.106078
