19
gdb 78873	2.73876	1.79223	1.36062	1.7842	78.37	-0.2432	0.0867	0.3299	990.1125	0.160239	-385.819483	-385.812179	-385.811235	-385.850762	30.491	
O	-0.1237921793	 1.4473078596	-0.0296701831	-0.446375
C	-0.0870881173	 0.048220281	 0.0491947868	 0.172579
C	 0.1795349439	-0.67226798	 1.3706455717	-0.142371
C	-0.7312787663	-1.8072522434	 0.96202002	-0.075928
C	-1.1797380937	-0.875706604	 2.0640589607	-0.165421
C	-2.2309947427	-0.2654975371	 1.1630229528	 0.415757
C	-3.7073577176	-0.3969919195	 1.3331804613	-0.359415
C	-3.0643263677	 0.9813882596	 1.2993682446	-0.361075
C	-1.4104805456	-0.7778444123	-0.0294982575	-0.211033
H	-0.7518909959	 1.7540276461	 0.6334967771	 0.287322
H	 0.6194385928	-0.2862289893	-0.7155781471	 0.085834
H	 1.1067958055	-0.732410166	 1.9266251628	 0.086653
H	-0.5789750342	-2.8750478138	 0.9306914049	 0.094895
H	-1.244086166	-1.0794013075	 3.1255058162	 0.087241
H	-4.3036627825	-0.6989132054	 0.477851747	 0.114153
H	-4.086983849	-0.7515264206	 2.2863210651	 0.113039
H	-3.0218765665	 1.5389623044	 2.2303205933	 0.113449
H	-3.2353867227	 1.5935944207	 0.4193373704	 0.121194
H	-1.8836262053	-0.9972589424	-0.9848145968	 0.069503
