13
gdb 42654	3.24408	1.43684	1.23094	2.9801	68.48	-0.2655	-0.0422	0.2234	982.8449	0.090024	-415.559675	-415.552932	-415.551988	-415.591101	25.581	
O	 0.0137388114	 0.054402352	 0.1827963903	-0.306643
C	 0.0138546604	 1.2447993397	 0.1110768818	 0.453359
C	-1.0552920448	 2.2964531097	-0.0793599673	-0.2178
N	-0.5444919793	 3.5895458543	 0.4684718734	-0.160758
C	 0.7979414827	 3.2659645758	 1.0965509204	-0.163434
C	 1.1079945545	 2.3223859128	-0.0749698039	-0.258757
C	-0.031489079	 3.1206645255	-0.8390487715	 0.297777
C	-0.1137584874	 3.7714474069	-2.0947664491	 0.140963
N	-0.1474595258	 4.2877342272	-3.1296227868	-0.337818
H	-2.1189111288	 2.2127716979	-0.2545388382	 0.151679
H	 1.3893321548	 4.1825029135	 1.1049468518	 0.14286
H	 0.741774746	 2.8346431081	 2.1006684941	 0.131971
H	 2.1028966953	 2.0660182367	-0.424989165	 0.126601
