17
gdb 49714	2.95976	1.45587	1.10748	4.7297	75.67	-0.2541	-0.026	0.2281	1095.5652	0.137206	-418.013024	-418.005212	-418.004268	-418.045814	29.041	
N	-0.0270530921	 1.1154351855	-0.6365082846	-0.542657
C	 0.0135213933	-0.055783855	-0.1820068303	 0.393971
C	-1.0378327752	-1.0634253671	 0.2565142861	-0.132085
C	-1.4948255128	-2.0275321002	-0.8841321207	-0.22948
C	-0.3363390588	-3.0102994502	-0.5289117869	-0.235683
C	 0.1522381921	-2.0375826848	 0.5772041022	-0.012131
N	 1.0596968842	-0.9770743197	 0.1064892318	-0.088589
C	 2.4075142803	-0.9178091676	-0.1092682787	 0.133121
O	 2.9798150891	 0.0491943415	-0.5628243109	-0.305282
H	 0.9147295929	 1.4546714341	-0.8402898052	 0.250582
H	-1.7715774769	-0.734281018	 0.9887764792	 0.105053
H	-2.4869208981	-2.4488584167	-0.7140620712	 0.117278
H	-1.4718451214	-1.5890722858	-1.883061036	 0.127746
H	-0.6904924858	-3.9597816229	-0.12074533	 0.116019
H	 0.3915823874	-3.2197456355	-1.3154861514	 0.115202
H	 0.3851389051	-2.4247877901	 1.5693669064	 0.098792
H	 2.9235252466	-1.8520981674	 0.1881357201	 0.088143
