17
gdb 44780	2.43612	2.1238	1.56166	2.864	72.43	-0.2344	-0.025	0.2094	899.6875	0.136401	-421.733623	-421.726781	-421.725837	-421.764562	28.184	
O	 0.0576888531	 0.0977952594	 0.1129597274	-0.331396
C	-0.0319288938	 1.2918046941	 0.048182821	 0.407176
C	-1.2635136871	 2.207439634	 0.1604987262	-0.3291
C	-0.4812996969	 3.5013821032	-0.0374765673	-0.008081
O	 0.6652151847	 3.2802116214	 0.9181132836	-0.379936
C	 1.0953807	 2.3277297407	-0.1688686501	 0.303056
C	 2.2141458765	 1.8491125585	-1.1149866565	-0.331834
C	 1.1503609109	 2.2437858656	-2.2570999388	-0.299312
C	 0.5692248543	 3.2550005349	-1.1914330997	-0.011041
H	-2.0119268955	 1.9850524786	-0.6061391631	 0.12686
H	-1.7285597632	 2.1499700369	 1.1468418798	 0.140588
H	-0.968022785	 4.4643624115	 0.1084040546	 0.096885
H	 3.0858179301	 2.5034965365	-1.1524100814	 0.126153
H	 2.5124917998	 0.8023215491	-1.0330936072	 0.132062
H	 1.5506499891	 2.6827024777	-3.1717903105	 0.116301
H	 0.5054674237	 1.399370366	-2.5047585441	 0.137958
H	 1.2070877494	 4.1422999417	-1.2049032039	 0.103664
