15
gdb 79317	4.09602	1.24087	1.15822	5.0085	71.12	-0.2661	-0.0028	0.2633	1049.4315	0.113727	-416.746784	-416.739536	-416.738592	-416.778456	27.879	
O	-0.171393008	 1.5016048633	-0.1381653174	-0.432614
C	-0.0068801146	 0.1114396582	-0.0868888539	 0.144532
C	-1.2889481695	-0.7073540902	-0.0758758674	-0.125382
N	-1.7577044936	-0.9591491354	-1.4705278674	-0.172296
C	-0.7572882745	-0.2470925669	-2.3462877138	-0.151373
C	 0.3668540311	-0.6651319283	-1.3904517277	-0.204424
C	-0.63966663	-1.7762418874	-0.8974028148	 0.306383
C	-0.587554489	-3.1865727106	-0.7801998318	 0.123446
N	-0.5027500087	-4.3370789267	-0.6844279448	-0.352415
H	 0.6791626796	 1.9235537554	 0.0190051961	 0.2928
H	 0.635649462	-0.2035536899	 0.7448213475	 0.094557
H	-2.0238483612	-0.8172221955	 0.7099106552	 0.127848
H	-0.7266869547	-0.7575626623	-3.3101609923	 0.125489
H	-0.941559351	 0.8226662705	-2.4697666549	 0.127255
H	 1.4016899422	-0.8019843742	-1.6944779828	 0.096195
