20
gdb 121009	4.49721	0.82235	0.75767	1.9476	77.13	-0.2407	0.031	0.2717	1566.075	0.170109	-440.300783	-440.291094	-440.29015	-440.336432	33.851	
C	 0.5790366597	 1.4477884414	 0.4590810957	-0.2265
O	 0.8444609858	 0.0698929614	 0.3375304677	-0.234938
C	-0.2413415366	-0.7385534428	 0.725395666	-0.073044
C	 0.1991602226	-2.1889041004	 0.5709730016	 0.063757
C	 1.2928428809	-2.6341887026	 1.5759359622	-0.195089
N	 0.6284884219	-3.6126382752	 2.4489781567	-0.305119
C	-0.5461396552	-3.7656937765	 1.9935378113	 0.403759
C	-1.5982068031	-4.6751052599	 2.5289705644	-0.472899
O	-0.9213757889	-3.0436862035	 0.8931049578	-0.266479
H	 0.3511949597	 1.7287494668	 1.4991486131	 0.107837
H	 1.4751711113	 1.9827127821	 0.1360278584	 0.13022
H	-0.2679711293	 1.7564910662	-0.1733022971	 0.107165
H	-0.5251549804	-0.5476918028	 1.7749014073	 0.092408
H	-1.1278429002	-0.5439776778	 0.1003953901	 0.097039
H	 0.477696413	-2.3720528932	-0.4705947715	 0.09751
H	 2.151808615	-3.1001285503	 1.0818306545	 0.115346
H	 1.6755674298	-1.7901512599	 2.1586917397	 0.119935
H	-1.2142451256	-5.2079496195	 3.3980486507	 0.151999
H	-2.4884942084	-4.1036925651	 2.8098645367	 0.142424
H	-1.902679272	-5.3938495683	 1.7615992646	 0.144668
