13
gdb 129091	2.67726	1.69672	1.07679	2.6586	72.23	-0.2603	-0.0907	0.1696	1024.3417	0.089293	-452.69886	-452.691549	-452.690604	-452.731596	26.663	
N	-0.1045778013	 1.3178202884	 0.5030657903	-0.420811
C	-0.0550001004	 0.1318821749	 0.0396815729	 0.14736
C	 1.2397627633	-0.5152886132	-0.2819368335	-0.006732
N	 1.6686964899	-1.3681281382	-1.1330872478	-0.054977
O	 0.8321561956	-1.9880746605	-2.0578090445	-0.230878
C	-0.5016342152	-2.1512127361	-1.9550645675	 0.096114
C	-1.438485611	-1.6668559093	-1.1223951083	-0.23577
C	-1.3621336677	-0.6288382588	-0.1011622368	 0.336428
O	-2.3105884685	-0.3382441436	 0.5944053033	-0.303898
H	 0.8320164267	 1.7250036547	 0.5854657695	 0.234742
H	 2.0706538502	-0.1409433899	 0.3188306614	 0.152408
H	-0.7871930644	-2.8566068164	-2.730420037	 0.15267
H	-2.4394538271	-2.057032022	-1.2729422321	 0.133345
