17
gdb 105721	2.41861	1.53544	1.23958	0.9825	76.44	-0.2536	-0.0015	0.2521	1083.5956	0.133352	-421.780259	-421.77134	-421.770395	-421.813948	32.842	
C	 0.1657314308	 1.3462583134	 0.0628254233	-0.252409
O	 0.1483272462	-0.0691885195	-0.0777185982	-0.253949
C	 0.6285434062	-0.5569166059	-1.3067171726	 0.254705
O	 1.9979001033	-0.2175956546	-1.5090006186	-0.282316
C	 2.8213587756	-1.3741995965	-1.3725676196	-0.136173
C	 1.8641107866	-2.521794336	-1.2433755823	-0.096367
C	 0.6189310428	-2.069012455	-1.2260360959	-0.123138
C	-0.1590323791	-0.0318978728	-2.4394475672	 0.306746
C	-0.825007269	 0.3588772724	-3.3600933363	-0.463045
H	 1.181375524	 1.7411149355	-0.0487240785	 0.126996
H	-0.4911169354	 1.8309569295	-0.6700413451	 0.120926
H	-0.1991818729	 1.5565959787	 1.0699854428	 0.124903
H	 3.4665757687	-1.454449871	-2.2579860286	 0.119032
H	 3.4756695364	-1.2793141495	-0.4930265161	 0.11695
H	 2.1830837226	-3.5531309858	-1.1636351358	 0.116117
H	-0.3026096706	-2.6247138497	-1.1322183631	 0.123135
H	-1.4054443363	 0.7071107867	-4.1788410582	 0.197887
