19
gdb 106378	2.89601	1.35258	1.16844	2.1535	70.25	-0.2476	0.0598	0.3073	1109.343	0.160099	-460.136918	-460.128846	-460.127902	-460.169472	32.01	
O	-0.0667668221	 1.4395656153	 0.1576649468	-0.4151
C	-0.0149667058	 0.0333540594	-0.0080415289	-0.175592
C	-1.398635375	-0.5561591269	-0.0955415856	 0.399864
C	-1.7323409706	-2.0601843966	 0.0541650007	-0.295706
C	-3.0103360991	-1.417724154	 0.6213460438	 0.033403
O	-2.1929929134	-0.3102388835	 1.1340545569	-0.365003
C	-3.6810894682	-0.7170515869	-0.5813218655	 0.173182
O	-4.6360552456	 0.2306250335	-0.163843774	-0.445916
C	-2.3801374683	-0.0925329905	-1.1905847366	-0.302583
H	-0.5904739997	 1.6038754054	 0.9503457938	 0.295345
H	 0.5307155481	-0.1565437574	-0.9387624015	 0.115078
H	 0.5368503099	-0.4506280743	 0.812084708	 0.095294
H	-1.8002460909	-2.6759288377	-0.8460776504	 0.101009
H	-1.1362465855	-2.5451675691	 0.8287197028	 0.113261
H	-3.6516764119	-1.8810042924	 1.3705285702	 0.087096
H	-4.196651554	-1.4049584643	-1.2557298261	 0.086558
H	-4.1923776511	 0.7664788039	 0.5068131682	 0.279581
H	-2.4483603866	 0.9950863116	-1.2445445627	 0.118586
H	-2.1253407202	-0.4820067954	-2.17979737	 0.101643
