15
gdb 34924	2.99949	1.70597	1.36939	4.7027	67.73	-0.2522	0.0179	0.2701	928.2492	0.114168	-416.766402	-416.759599	-416.758654	-416.797719	26.485	
N	-0.3180572923	-1.1751428617	-0.3588815902	-0.321565
C	-0.1667634607	-0.0445036158	-0.1777324033	 0.306974
C	 0.0130486503	 1.3906092505	 0.0524304109	-0.168984
C	-0.6042332051	 1.8727948297	 1.372579674	 0.02882
O	-0.0246615775	 1.2837253062	 2.5312367702	-0.235616
C	 0.4540844487	 2.5716179044	 2.1157754076	 0.028664
C	 1.7197136915	 2.5267083797	 1.2957570069	-0.055181
C	 2.3165363257	 1.1870077926	 1.0560456801	-0.244235
N	 1.4459360802	 1.7924175522	 0.035632933	-0.11097
H	-0.4782105443	 1.9274021264	-0.7690106945	 0.140696
H	-1.6658685705	 2.1026569111	 1.4231190572	 0.121505
H	 0.2647715921	 3.3921378678	 2.8006674075	 0.116169
H	 2.3006357638	 3.4400396263	 1.213331615	 0.106489
H	 3.3540665528	 1.1043844809	 0.7470733562	 0.128362
H	 1.9342923454	 0.3650211899	 1.6510273095	 0.158872
