21
gdb 94815	2.23836	1.6788	1.26057	2.1546	77.23	-0.2535	0.0662	0.3197	1090.5188	0.183709	-424.224186	-424.21557	-424.214626	-424.257318	34.237	
O	-0.7764829195	 1.4140851714	 0.4206166599	-0.450147
C	-0.0723316243	 0.2038019469	 0.1173962826	 0.097131
C	 0.7765818668	-0.3211595127	 1.29502549	-0.253717
C	-0.0472243941	-1.4725775666	 1.9522707064	-0.298913
C	-1.3998731194	-1.4326877837	 1.2523070702	 0.34979
C	-2.5055196588	-2.4000134221	 1.5260573128	-0.346108
C	-2.649639648	-0.9595918656	 1.9649845597	-0.321232
C	-1.1000113615	-0.9176690565	-0.1588054505	 0.049389
O	-2.2116445948	-0.4733729824	-0.8964412291	-0.442556
H	-1.2105831179	 1.290621355	 1.2732836991	 0.288546
H	 0.5241174504	 0.4478778191	-0.7645857949	 0.086172
H	 1.7467559105	-0.6816404801	 0.9426645901	 0.109613
H	 0.9814164891	 0.5006256869	 1.9872461642	 0.108973
H	 0.4426848308	-2.435999522	 1.7701916787	 0.105939
H	-0.1331423395	-1.3643518421	 3.0370030467	 0.101193
H	-3.110058019	-2.7202410543	 0.6836854181	 0.124229
H	-2.353274724	-3.1555310427	 2.2901786808	 0.107943
H	-2.5868496859	-0.7395500379	 3.0262356162	 0.104742
H	-3.3526734783	-0.3505618433	 1.4076118742	 0.116036
H	-0.6192612282	-1.7203331613	-0.7360308492	 0.07884
H	-2.2674345944	 0.4765695741	-0.715880326	 0.284134
