21
gdb 89469	2.11204	1.58418	1.45709	2.1655	78.22	-0.2339	0.0658	0.2997	1089.4562	0.18042	-424.209052	-424.199691	-424.198747	-424.242586	36.127	
C	-0.5835636948	 1.319351469	-0.0891789098	-0.419288
C	 0.1227685679	-0.0190708124	-0.0479982167	 0.131592
O	 1.3277341659	-0.059719107	-0.8596195067	-0.355898
C	 2.1202384539	-0.6144729587	 0.218874664	 0.388618
C	 2.8458962881	-1.8746019277	-0.1661599396	-0.479275
C	 2.8427188171	 0.5130529134	 1.0065253927	-0.268316
C	 1.6487379808	 0.5839658763	 2.0114838657	-0.307034
C	 0.8940957236	-0.4947721672	 1.1976984685	 0.282565
O	 0.2385777196	-1.530712539	 1.8627724197	-0.474699
H	 0.0783881779	 2.1354570538	 0.2137877535	 0.118678
H	-0.9294469493	 1.5280705237	-1.1064269332	 0.127585
H	-1.457579073	 1.3088198527	 0.5709471894	 0.121655
H	-0.5658867796	-0.8169676935	-0.3600570779	 0.083671
H	 3.5675402077	-1.6692987392	-0.9650813951	 0.128209
H	 3.3948437848	-2.2886437468	 0.686316414	 0.107674
H	 2.1422778154	-2.630268431	-0.5273148158	 0.129396
H	 3.7877129872	 0.2124832654	 1.466646308	 0.096904
H	 3.0073502156	 1.4084575174	 0.4049774956	 0.110647
H	 1.9202583209	 0.21203611	 3.005518523	 0.09111
H	 1.1516129095	 1.5482056694	 2.1412099627	 0.106834
H	 0.7402816207	-1.7575328387	 2.6524414979	 0.279371
