18
gdb 11512	5.00552	1.0406	0.9164	2.9559	72.65	-0.265	0.0297	0.2947	1251.6134	0.154294	-343.978027	-343.969312	-343.968367	-344.011956	31.448	
N	-0.2569620641	 1.5366821984	-0.1608775188	-0.484629
C	-0.0392684194	 0.0965291271	-0.0151171901	-0.130861
C	-1.3670376914	-0.6576090618	 0.2192734912	-0.199452
C	-2.0398123347	-0.2988012879	 1.5255080104	 0.036812
C	-3.0239400255	 0.8361803412	 1.6157715966	-0.234602
C	-3.5092793663	-0.5873589114	 1.7177530905	-0.286293
C	 0.6801495178	-0.4945462172	-1.1672369564	 0.25053
N	 1.2360996887	-0.9153554052	-2.0900291017	-0.323945
H	 0.6325602935	 2.0149257311	-0.2688585848	 0.24388
H	-0.7849208858	 1.718550823	-1.0103061515	 0.238718
H	 0.5964057008	-0.0505155865	 0.8670757388	 0.131057
H	-2.0406386918	-0.4534463301	-0.6229686999	 0.105955
H	-1.1540974562	-1.7327061533	 0.1883983551	 0.121825
H	-1.4117635059	-0.4522716068	 2.4002479563	 0.08234
H	-3.0201982806	 1.4491634233	 2.5098538256	 0.11384
H	-3.2437674707	 1.3857126385	 0.7073295333	 0.10902
H	-4.0578856443	-0.9992043269	 0.8765708023	 0.111882
H	-3.8384126641	-0.9573476654	 2.6823270228	 0.113922
