18
gdb 45304	3.37457	1.39805	1.1893	3.9134	76.59	-0.2333	0.0138	0.2471	1065.197	0.151105	-402.014278	-402.007057	-402.006112	-402.046285	28.571	
O	-0.2695837015	-0.0336532219	 0.2838303378	-0.379528
C	-0.2173479715	 1.1608027543	 0.0890960638	 0.404726
C	-1.2954763109	 2.0464048827	-0.5408922798	-0.351198
C	-0.8106031909	 3.4931215092	-0.322812958	-0.062035
C	-1.3912819733	 4.1796190381	 0.8914911807	-0.065634
C	-0.4626349542	 4.6076868916	 1.7428910357	-0.060594
C	 0.9362645961	 4.3153571774	 1.2598062763	-0.268212
C	 0.7111830335	 3.3788333309	 0.0434977581	 0.002042
N	 0.8452640366	 1.9737553826	 0.376652281	-0.300565
H	-1.3713261837	 1.7867299919	-1.6019321084	 0.127177
H	-2.2653802103	 1.8345459647	-0.0854977652	 0.129716
H	-0.9638860171	 4.0998063005	-1.2219289596	 0.085835
H	-2.4620968817	 4.2982903524	 1.0183309289	 0.098121
H	-0.6602301863	 5.1302481466	 2.6722537871	 0.098118
H	 1.4543879589	 5.2362860659	 0.9606475554	 0.109683
H	 1.5639141594	 3.840046175	 2.0231136211	 0.105942
H	 1.3670546082	 3.6454680759	-0.7935837588	 0.078917
H	 1.6935001587	 1.5768153821	 0.7495940038	 0.247491
