18
gdb 39246	2.73584	2.1959	1.57893	3.8012	73.71	-0.2393	0.0037	0.243	879.7478	0.151505	-401.932719	-401.926377	-401.925433	-401.963217	26.555	
C	 0.0411161654	 1.3913147229	-0.4743377327	-0.218449
C	 1.2681925172	 2.076548874	 0.2040519502	-0.237701
C	 2.1725402607	 0.9545595618	 0.826982421	-0.046287
C	 2.3298426346	 1.1194855017	 2.3850904193	-0.172939
N	 0.9577057557	 0.8357404439	 2.9290877135	-0.29117
C	 0.4684923656	 0.1028847639	 2.0235546721	 0.385724
O	-0.7851689768	-0.0194469257	 1.4810591421	-0.287592
C	-0.1103549291	-0.0069556484	 0.1343300687	 0.076129
C	 1.253058135	-0.271566839	 0.8017383091	-0.162285
H	-0.8750457437	 1.980955235	-0.3881064802	 0.124773
H	 0.2339802776	 1.2475416483	-1.5440163861	 0.110699
H	 1.825070704	 2.675140069	-0.5207896186	 0.103037
H	 0.9310499965	 2.7591694587	 0.987144254	 0.131441
H	 3.1266553173	 0.8455089693	 0.3057359778	 0.068785
H	 3.0904351386	 0.4415950549	 2.7950624613	 0.104734
H	 2.6040987957	 2.1391011325	 2.6707343478	 0.115722
H	-0.5806424785	-0.7545446278	-0.5033343977	 0.097751
H	 1.6820550242	-1.2705110148	 0.7478204983	 0.09763
