17
gdb 29910	3.35626	1.29778	0.94383	2.936	87.18	-0.181	0.0283	0.2093	1211.4405	0.135942	-380.876604	-380.867479	-380.866535	-380.910115	34.031	
C	-0.0483655929	 1.4536298746	 0.0287973957	-0.348019
N	-0.003609306	 0.0079700346	-0.0068963316	-0.017898
C	 0.0274631741	-0.77746971	-1.14859401	-0.101278
C	 0.0391449972	-2.0906178383	-0.7711879145	-0.295973
C	 0.0370030738	-2.1275888962	 0.6631306498	 0.119696
C	 0.0507127127	-3.2455976436	 1.5226057425	 0.205426
C	 0.0645663985	-4.1830092737	 2.2831898881	-0.450959
C	 0.0134985294	-0.8039919998	 1.0930514815	 0.183632
N	-0.0825758382	-0.2776389578	 2.3863106495	-0.623606
H	 0.9541498197	 1.8966312285	 0.0799800102	 0.1317
H	-0.5440490202	 1.8228273888	-0.8715117896	 0.142226
H	-0.618221281	 1.7723765285	 0.9048779914	 0.157805
H	 0.0399003687	-0.3167586018	-2.1228966219	 0.116318
H	 0.0527044439	-2.9477078809	-1.4251947702	 0.101232
H	 0.0730281179	-5.0172758577	 2.9388187461	 0.175728
H	-0.1914464238	-1.035576763	 3.0514151644	 0.257793
H	 0.7287799863	 0.2695128378	 2.6582808285	 0.246175
