18
gdb 61894	3.43511	0.7491	0.65522	3.9708	73.71	-0.2811	-0.0424	0.2387	1656.112	0.144917	-439.12528	-439.11517	-439.114226	-439.161484	35.142	
C	 0.0552691192	 1.42561686	 0.0555971778	-0.484609
C	 0.0593432723	-0.0777404461	-0.075576627	 0.366456
O	 1.0757671044	-0.7183374282	-0.2396403022	-0.312267
C	-1.2739557254	-0.8340461053	 0.0002633601	 0.028063
O	-1.0497421723	-2.2038988093	-0.1864304202	-0.43594
C	-1.9933774832	-0.5805228749	 1.3384112957	-0.21061
C	-3.2775570929	-1.4270679734	 1.4297123911	-0.336159
C	-3.976586859	-1.2362415381	 2.6973618032	 0.254993
N	-4.5166086802	-1.0681891857	 3.7051246261	-0.304176
H	 1.0074091092	 1.8274833202	-0.2926310903	 0.156617
H	-0.7727417916	 1.8732274391	-0.5022878232	 0.144301
H	-0.0770408582	 1.7015232026	 1.1083444084	 0.162214
H	-1.9111447584	-0.4445787374	-0.8145270027	 0.092408
H	-0.0858914589	-2.2915781479	-0.2828319812	 0.297351
H	-1.3260220082	-0.8492298987	 2.1643199364	 0.131111
H	-2.2418171036	 0.4803974853	 1.4416145491	 0.120543
H	-3.9610689927	-1.1717015008	 0.611169085	 0.149945
H	-3.0194143608	-2.4832818616	 1.3109354538	 0.179759
