17
gdb 67950	2.36532	1.85555	1.31269	4.3595	72.62	-0.2655	-0.008	0.2575	1001.8349	0.136547	-421.875595	-421.868025	-421.867081	-421.907524	29.405	
C	-0.2705740635	 1.4449907603	 0.0985375865	-0.463865
C	 0.0579528435	-0.0248067561	-0.0239334773	 0.40934
O	-1.156178533	-0.851047396	 0.2698561212	-0.286753
C	-0.4912840639	-1.5611061022	 1.2309063949	 0.444579
O	-0.9053820294	-2.4665026986	 1.8833521177	-0.331669
C	 0.8208127214	-0.7832171211	 1.0941074058	-0.280707
C	 1.9958324627	-1.5298008354	 0.4316835956	-0.289203
C	 1.7607515259	-1.2891733535	-1.0431404961	-0.061112
C	 0.7308051725	-0.4791032576	-1.2887948988	-0.121965
H	 0.6353080156	 2.0475298101	-0.0192840125	 0.1299
H	-0.9827432858	 1.7444234	-0.6767998377	 0.13638
H	-0.7155487302	 1.6641816312	 1.0730507732	 0.131979
H	 1.084474263	-0.2198789648	 1.9897326764	 0.108724
H	 2.9633640043	-1.1270494814	 0.7545527065	 0.120345
H	 2.004923244	-2.5963415955	 0.6837575434	 0.137316
H	 2.38318434	-1.7485040316	-1.8036493264	 0.10977
H	 0.384836653	-0.1714075177	-2.2687407023	 0.10694
