21
gdb 107748	2.75286	1.36137	1.22061	1.2792	81.9	-0.2298	0.0682	0.298	1149.7309	0.182359	-387.0407	-387.032083	-387.031139	-387.073688	34.032	
C	-0.0976513583	 1.4811749685	 0.0616070309	-0.382018
C	 0.0369425459	-0.0471248121	 0.0274884918	-0.299809
C	 0.7402243367	-0.5563784104	-1.2058349856	 0.257894
C	 0.1015514466	-0.4440906188	-2.6255557454	-0.267401
C	 0.9062385947	-1.6851776078	-2.9968567918	-0.15574
C	 2.275069939	-1.5660604142	-2.2561325678	-0.113372
C	 2.2480587639	-0.2555927771	-1.4768225887	-0.267549
C	 1.0655071884	-2.0925488962	-1.5550276382	 0.323836
O	 0.9066191877	-3.269666013	-0.8694155675	-0.452615
H	 0.8841897802	 1.9654259482	 0.0380917051	 0.12081
H	-0.6693415157	 1.8486911964	-0.7971165202	 0.118832
H	-0.6106625892	 1.8114552628	 0.9700088284	 0.111886
H	 0.5813662724	-0.3880239724	 0.9177500696	 0.101397
H	-0.9612997953	-0.5019707713	 0.0900163343	 0.086774
H	-0.9740027858	-0.6490821111	-2.6053633483	 0.086971
H	 0.2851865483	 0.4836090621	-3.1797974816	 0.087968
H	 0.8198747114	-2.3191630733	-3.8702804066	 0.083556
H	 3.1279175967	-2.1309831299	-2.6097921673	 0.086614
H	 2.4853123683	 0.6763987752	-2.0030579041	 0.085653
H	 2.8440541771	-0.3229548284	-0.5614773892	 0.097571
H	-0.016315143	-3.5401895472	-0.9336094978	 0.288743
