17
gdb 77126	2.68806	1.29158	1.12962	5.015	69.51	-0.24	-0.0362	0.2039	1142.6202	0.133306	-458.986492	-458.977457	-458.976513	-459.020903	32.787	
C	-0.000805568	 1.5421230022	-0.0594975662	-0.484969
C	-0.0960824051	 0.0364865024	 0.0282646783	 0.420308
O	-0.2485614778	-0.5383905246	 1.0906658526	-0.33399
C	 0.0234295685	-0.7503965507	-1.2572571223	-0.207111
C	 1.4083998269	-1.486641273	-1.3355181842	-0.353529
C	 0.6968964114	-2.7586899977	-0.8256606141	 0.363428
O	 1.0697440351	-3.7405525584	-0.2594454169	-0.286197
C	-0.6917138307	-2.1643699064	-1.1593391248	 0.061403
O	-1.7824362636	-2.3705753553	-0.3364691661	-0.418907
H	 0.9023151006	 1.8394393666	-0.604059698	 0.144667
H	-0.8539200167	 1.9293547462	-0.6293861141	 0.151508
H	 0.0006524551	 1.9797173692	 0.9392380651	 0.149324
H	-0.2280410647	-0.1461141188	-2.1296867314	 0.087886
H	 1.7706707741	-1.5875060136	-2.3621036344	 0.138272
H	 2.2174419563	-1.1154043501	-0.7036306369	 0.142089
H	-0.9716219172	-2.4772158197	-2.173426031	 0.120777
H	-1.5042423042	-2.1024876383	 0.5518774343	 0.305041
