19
gdb 39426	2.42581	1.93884	1.29444	2.2107	74.92	-0.2399	0.0611	0.301	1003.9978	0.162985	-419.13985	-419.132608	-419.131664	-419.171312	29.303	
C	 0.0238571671	 1.4349542275	 0.0860362183	-0.109747
O	 1.31620812	 1.9387799808	-0.2466463116	-0.255315
C	 2.2240004544	 2.0925924359	 0.8230928633	-0.081329
C	 2.4336233994	 0.9347719509	 1.7968169015	-0.038836
N	 1.3175813003	 0.5866227099	 2.6821257599	-0.321948
C	 1.8135135478	-0.4283169853	 1.7491133489	-0.031566
C	 0.9002954217	-0.9331260172	 0.6655389286	-0.017237
N	-0.5563310232	-0.9310598568	 0.9110697523	-0.330032
C	 0.0088378577	-0.0640874008	-0.1369062532	-0.033873
H	-0.2496593166	 1.6622559918	 1.1196663242	 0.138583
H	-0.6836819703	 1.9310115113	-0.5874437295	 0.095676
H	 3.1839186322	 2.3165668651	 0.3442711533	 0.105029
H	 1.9489560309	 2.9694884071	 1.43407254	 0.094281
H	 3.4254887013	 0.9772482904	 2.2495567039	 0.083474
H	 1.6281271319	 0.3938766812	 3.6292589524	 0.23276
H	 2.4258713975	-1.221010508	 2.1794421213	 0.079066
H	 1.3131420351	-1.7957890794	 0.1452472548	 0.079337
H	-0.9813907375	-1.7546318816	 0.4926162389	 0.229531
H	-0.1356110799	-0.3665013228	-1.1728751975	 0.082147
