20
gdb 40438	3.827	1.22023	1.08844	0.9997	78.65	-0.2226	0.0787	0.3014	1175.6122	0.172978	-403.108691	-403.100829	-403.099885	-403.141209	30.977	
C	 0.4429870882	 1.5110061678	 0.1583897017	-0.229972
N	 1.3019916702	 0.3570618369	-0.1594964774	-0.320321
C	-0.1431902852	 0.1540134875	 0.0133229241	-0.122221
C	-0.5632836381	-0.6627486642	 1.1873329346	 0.496348
C	 0.3388644534	-0.9268766216	 2.3636266472	-0.370719
C	-0.1177785232	-2.0722145079	 1.4712436345	-0.113783
C	-1.3731421076	-2.8243985269	 1.8757823372	-0.240122
C	-2.3736308275	-1.6852867317	 2.1795389755	-0.095845
O	-1.9488791115	-0.5488386749	 1.427610404	-0.307446
H	 0.5909012367	 1.9227582117	 1.1522980265	 0.122172
H	 0.2416925397	 2.2442618267	-0.6176705344	 0.112303
H	 1.5355094277	 0.3547210406	-1.1480337695	 0.234445
H	-0.7444724602	-0.0243907898	-0.8766168804	 0.084982
H	 1.3723518262	-0.6199353062	 2.2520585536	 0.13597
H	-0.0649047677	-0.8376037781	 3.3669571407	 0.106623
H	 0.619052058	-2.5632019977	 0.846711832	 0.093094
H	-1.718581773	-3.4383592311	 1.0370033849	 0.10516
H	-1.2418442772	-3.4832537164	 2.7398902673	 0.103573
H	-3.4022213341	-1.9163003015	 1.8883674414	 0.107451
H	-2.3743929846	-1.4471186232	 3.2522425966	 0.098309
