15
gdb 127919	2.69588	1.57906	1.00209	5.1011	74.08	-0.2265	-0.0345	0.192	1118.2992	0.114261	-450.148545	-450.140525	-450.13958	-450.18132	29.389	
C	 0.1157819695	 1.4220079523	 0.1438551141	-0.348622
N	 0.1446154187	-0.0270545606	 0.116274572	-0.256063
C	 0.4708589816	-0.604804635	-0.9658637589	 0.298894
N	 0.8148402861	 0.0260180732	-2.1664822603	-0.394929
C	 1.1606373114	-0.6532121191	-3.310878044	 0.112359
N	 1.2080279626	-1.9290106537	-3.410463864	-0.222858
N	 0.8813132821	-2.6114860472	-2.2655591085	-0.293243
C	 0.5115145878	-2.1140271091	-1.0316173442	 0.384281
O	 0.2491731014	-2.8401237202	-0.1017760925	-0.335999
H	 1.1012244466	 1.8660131348	-0.0736074138	 0.11523
H	-0.6047504292	 1.841930794	-0.5773011293	 0.115118
H	-0.182663185	 1.7593398362	 1.1385087702	 0.141746
H	 0.8077121534	 1.0342248486	-2.1903664877	 0.264637
H	 1.4072056176	-0.054275234	-4.1788675061	 0.145502
H	 0.9198344053	-3.6172182002	-2.3474221768	 0.273947
