20
gdb 57889	2.72466	1.29746	1.01306	2.3536	77.68	-0.2319	0.0216	0.2534	1243.0816	0.168815	-440.291982	-440.281768	-440.280824	-440.327689	36.829	
C	 0.6194293402	 0.6671539984	 1.2225473504	-0.332266
N	 0.2767638056	-0.6618325787	 0.7366244536	-0.102802
C	 0.1926567585	-1.6789863695	 1.7753259434	-0.350552
C	 0.4426974988	-0.901819054	-0.6045607001	 0.33884
O	 0.8870555693	-0.0470230928	-1.359540511	-0.390905
C	 0.0436700811	-2.2575544431	-1.1688876628	 0.266283
O	-0.9880784095	-2.9817352688	-0.5477037433	-0.45829
C	 0.1957333794	-2.4262239117	-2.6607418544	-0.294473
C	 1.1579673058	-3.1109963261	-1.7261095748	-0.28388
H	 1.6427024338	 0.6984027375	 1.6223469185	 0.120236
H	 0.5492037403	 1.3770081206	 0.4007860091	 0.161396
H	-0.0706814468	 0.947312046	 2.0255363797	 0.116039
H	 1.1500225061	-1.7611255085	 2.3096231164	 0.116391
H	-0.5726989234	-1.3966196367	 2.5084507319	 0.119896
H	-0.0743424091	-2.6431738646	 1.3550217905	 0.173608
H	-1.814922933	-2.5154370088	-0.7140224733	 0.287668
H	-0.5546726391	-3.0445965586	-3.1395070662	 0.111425
H	 0.5432855932	-1.5644350649	-3.2144429927	 0.146802
H	 2.1685548718	-2.7259064079	-1.6575333105	 0.130168
H	 1.0500375573	-4.1790291979	-1.5745648143	 0.124416
