24
gdb 99772	1.85799	1.42645	0.9509	2.345	85.68	-0.244	0.0812	0.3252	1362.2232	0.216358	-405.516419	-405.506034	-405.50509	-405.551909	39.1	
C	-0.0231004608	 1.5984415283	 0.2165988937	-0.400052
C	-0.0543987448	 0.0733161625	 0.0281554584	 0.052092
C	 0.7251306956	-0.6039479394	 1.1636134055	-0.402487
C	-1.5098054526	-0.4341148877	-0.1160078939	 0.009493
C	-2.1299620609	-0.0119363716	-1.4600110841	-0.058618
O	-1.437787089	-0.5804160485	-2.5552192836	-0.423335
N	-1.5717023896	-1.9040344495	-0.0990322997	-0.084048
C	-1.7374333682	-2.5790102805	 1.1820609528	-0.223638
C	-2.8701371347	-2.4973272051	 0.2246588869	-0.22802
H	 1.0103798432	 1.9516060297	 0.2885787037	 0.11328
H	-0.4927285163	 2.1350646109	-0.6119318886	 0.118784
H	-0.5358501665	 1.8920173517	 1.1410376001	 0.108228
H	 0.4480944335	-0.1658206291	-0.9162880146	 0.091128
H	 0.802101862	-1.6833817653	 1.0188528551	 0.124926
H	 1.7420575825	-0.2003936151	 1.2106536887	 0.108285
H	 0.2582573226	-0.4213729031	 2.1394713792	 0.102766
H	-2.1228547086	-0.0076149197	 0.7017551181	 0.048021
H	-3.1927911502	-0.304255298	-1.4671801456	 0.08029
H	-2.094000353	 1.073445633	-1.585141225	 0.106557
H	-1.281943452	-1.502027521	-2.3092411226	 0.28757
H	-1.1818853278	-3.5039847769	 1.3088197786	 0.119515
H	-1.8012331891	-1.9618190474	 2.0758644298	 0.116008
H	-3.6874639667	-1.8249388167	 0.4798462853	 0.114608
H	-3.1602696886	-3.3604137814	-0.3671865283	 0.118646
