21
gdb 40959	3.35339	1.29168	1.16565	1.8113	77.64	-0.2529	0.0799	0.3328	1143.1679	0.184711	-424.222962	-424.215152	-424.214208	-424.255085	31.4	
C	 0.1483725064	 1.3952916715	-0.5294686985	-0.218905
C	 1.4364123447	 1.6018287097	 0.3132535835	-0.282631
C	 1.3295461034	 0.1381137234	 0.7910247282	 0.430269
C	-0.1586214516	 0.1231913549	 0.3065352493	-0.2777
C	 2.2479496718	-0.8452626674	 0.0563650488	-0.252193
C	 2.0890319289	-2.2458578687	 0.6526469401	-0.096295
O	 2.2767778552	-2.2032177306	 2.0608411505	-0.233097
C	 1.3786194033	-1.3029822505	 2.6508595969	 0.002026
O	 1.5410952005	 0.0150956792	 2.1931437425	-0.290104
H	-0.5943392899	 2.1945680729	-0.5046268271	 0.103664
H	 0.3670803847	 1.1626684268	-1.5747832724	 0.104289
H	 2.3544969435	 1.8894669257	-0.2055977596	 0.096181
H	 1.2736982915	 2.2780616841	 1.1560292261	 0.113607
H	-0.8300476542	 0.336386585	 1.1423375899	 0.108543
H	-0.5199971923	-0.7610104197	-0.2246371981	 0.093878
H	 2.0287902053	-0.8569553501	-1.0172198023	 0.096694
H	 3.2853350741	-0.5175438428	 0.187421959	 0.110371
H	 1.0894521401	-2.6523135509	 0.4213274722	 0.089969
H	 2.834480988	-2.94045514	 0.2570593569	 0.111461
H	 0.340023699	-1.639858743	 2.4688860128	 0.074481
H	 1.5872393078	-1.2950056194	 3.7225514612	 0.115492
