19
gdb 108839	2.92794	1.38156	1.05685	1.1704	76.62	-0.2361	0.0331	0.2692	1184.6435	0.16014	-419.197666	-419.189159	-419.188215	-419.230731	31.817	
C	-0.0229086737	 1.3400772728	 0.0424416669	-0.231922
O	-0.0504108247	-0.0852117688	-0.0741350317	-0.24238
C	 0.6020480561	-0.5815608043	-1.1187464431	 0.440797
N	 1.2402683702	 0.087518607	-1.9981039435	-0.356967
C	 1.7836194331	-0.881421027	-2.9651839212	 0.02847
C	 3.2672568842	-0.6475061836	-3.2490057049	-0.385691
C	 1.4272260722	-2.2547505484	-2.3708198777	-0.039358
C	 1.8905607525	-2.5817488241	-1.0022690812	-0.255177
N	 0.5333848955	-2.0058574461	-1.2163089682	-0.165911
H	 1.0051405031	 1.6981440575	 0.1467633004	 0.137496
H	-0.4660865791	 1.8056307235	-0.8420766629	 0.141139
H	-0.6046296171	 1.5757833205	 0.9339334517	 0.131788
H	 1.2352438819	-0.7642035334	-3.9105947783	 0.086367
H	 3.8646784471	-0.7536016546	-2.3386853306	 0.114186
H	 3.6372452543	-1.3640783853	-3.9896429206	 0.112348
H	 3.4214757058	 0.3621459642	-3.6388417077	 0.128427
H	 1.1306048415	-3.0590981246	-3.0359412167	 0.100506
H	 1.8874374349	-3.6125416813	-0.6630160106	 0.126351
H	 2.6311957121	-1.9416975541	-0.5317241901	 0.12953
