18
gdb 22914	3.32155	1.11618	0.93249	2.1691	71.29	-0.2529	-0.0088	0.244	1246.9759	0.147086	-476.189784	-476.180802	-476.179858	-476.223436	34.016	
O	-0.0974001786	 1.2888528534	 0.2376998578	-0.388229
N	 0.0115007346	-0.1093897159	 0.2105974269	-0.235209
C	-1.1155915285	-0.657733849	-0.0102965371	 0.390835
C	-2.473254087	-0.0154480882	-0.2017609232	-0.31227
C	-3.399515483	-1.1978644537	-0.5478104211	-0.249901
C	-2.7216686048	-2.421281268	 0.11300948	 0.148184
O	-3.1505483293	-3.6732225113	-0.3571314005	-0.447536
C	-1.2174868986	-2.162464638	-0.118094441	-0.005873
O	-0.9588885281	-2.5998046662	-1.4567897906	-0.449877
H	 0.8070821872	 1.563339359	 0.4238889949	 0.308156
H	-2.7659883904	 0.481647596	 0.7315863945	 0.130422
H	-2.4445421954	 0.7674588011	-0.9646189106	 0.132825
H	-4.4273635871	-1.0605066535	-0.206341732	 0.104601
H	-3.4233407106	-1.3598969549	-1.6299711472	 0.112225
H	-2.9134786883	-2.405418115	 1.1928993551	 0.090994
H	-2.6921588444	-3.8138170508	-1.1956784752	 0.292481
H	-0.5669734717	-2.6856868873	 0.5910462689	 0.08331
H	-0.067343546	-2.3216454777	-1.6895362994	 0.294861
