23
gdb 38936	2.8382	1.75513	1.50182	0.1582	87.62	-0.2741	0.0849	0.3591	1008.9603	0.211981	-351.167236	-351.160535	-351.15959	-351.197792	29.732	
C	-0.0906759606	 1.5830899544	 0.0733846633	-0.236379
C	 1.4617362269	 1.4783486896	-0.0061205237	-0.036868
C	 1.7559945274	 0.8476310533	 1.370141244	-0.228944
C	 0.7482487454	-0.3521399029	 1.306639181	 0.016892
C	 1.4393155982	-1.7181490748	 1.1539839599	-0.213405
C	 2.5732818304	-1.6705814443	 0.1137103274	-0.200623
C	 2.1692125989	-0.9201606741	-1.1720168072	-0.244062
C	 1.2097578661	 0.2501153299	-0.9545037394	 0.04179
C	 0.0022256185	 0.0379949308	 0.004693548	-0.021489
H	-0.5210225794	 2.0394511061	 0.9703084749	 0.081774
H	-0.5409792155	 2.0154029984	-0.8236085336	 0.090264
H	 2.0803464731	 2.3219275475	-0.3163283666	 0.051289
H	 2.7939896384	 0.5382776508	 1.5041377195	 0.091298
H	 1.5175666015	 1.544049059	 2.1798666942	 0.088971
H	 0.074781052	-0.3657721455	 2.1692136729	 0.056108
H	 1.8411344668	-2.054862564	 2.1171110459	 0.088343
H	 0.6869415278	-2.4617585522	 0.8570309273	 0.089043
H	 3.4502353177	-1.1894114466	 0.5588230851	 0.10181
H	 2.8934623086	-2.6875369406	-0.138206398	 0.087394
H	 3.0661376559	-0.5875446404	-1.7093306374	 0.091577
H	 1.6589447834	-1.6203157179	-1.84793513	 0.094919
H	 0.865573982	 0.6230721143	-1.9249362045	 0.062128
H	-0.8495141036	-0.5862801908	-0.273390243	 0.048169
