15
gdb 131126	3.88436	0.99957	0.97786	4.0041	67.94	-0.2457	-0.0398	0.2059	1216.3464	0.113363	-453.964822	-453.956798	-453.955854	-453.998837	28.829	
O	-0.0893529295	 1.4850501488	 0.1014132669	-0.426932
C	 0.0100411952	 0.0883955465	 0.0327333947	-0.074426
C	 0.764049591	-0.3125860964	-1.2331899066	 0.137398
O	 1.1664866323	 0.5090533802	-2.0187424539	-0.259385
C	 0.7069504085	-0.4896311784	 1.232855777	 0.197638
C	 0.4136180116	-1.6500293477	 1.9221821498	-0.147356
N	 1.3471136423	-1.7596812729	 2.896915796	-0.177907
N	 2.2323948512	-0.7447750539	 2.9019650444	-0.218554
C	 1.8506759873	 0.0259225498	 1.8901857483	-0.068244
H	 0.300436703	 1.8123218682	-0.7255385282	 0.295881
H	-0.9899536278	-0.3763437223	-0.0533865157	 0.09499
H	 0.9230652996	-1.3996323221	-1.377978099	 0.102431
H	-0.373549411	-2.3777463434	 1.8006673444	 0.139093
H	 1.4259955191	-2.478235801	 3.5964717782	 0.278489
H	 2.3856918072	 0.9368875746	 1.6692823237	 0.126884
