18
gdb 8798	4.95896	1.08528	0.91009	0.	68.99	-0.237	-0.0791	0.1578	1297.493	0.149949	-384.985112	-384.975269	-384.974324	-385.02122	33.271	
C	-0.0456961204	 1.5609447827	 0.0637620038	-0.384094
C	 0.019768153	 0.039688562	-0.033854069	-0.27445
C	 0.7308874013	-0.4499798932	-1.2756422427	 0.288943
O	 1.2059000451	 0.2780834985	-2.117194159	-0.285387
C	 0.8372946756	-1.9882853396	-1.4446698875	 0.288943
O	 0.3622878447	-2.7163486573	-0.6031145491	-0.285387
C	 1.5484467796	-2.4779538489	-2.6864391765	-0.27445
C	 1.6139149019	-3.9992100744	-2.7840526442	-0.384094
H	 0.9567176728	 1.9971188935	 0.0773106568	 0.130651
H	-0.5727541022	 1.9872230917	-0.7940049061	 0.130644
H	-0.5669364453	 1.8651870193	 0.9752431948	 0.115125
H	 0.5235991718	-0.4073770394	 0.8330086247	 0.139284
H	-0.9784567222	-0.4170470333	-0.0233705794	 0.139283
H	 1.044639946	-2.0308880239	-3.5533155304	 0.139284
H	 2.5466722741	-2.0212186038	-2.6968950527	 0.139283
H	 0.6115017245	-4.4353848499	-2.7976328241	 0.13065
H	 2.1351838087	-4.3034523096	-3.6955174908	 0.115125
H	 2.140946041	-4.4254878444	-1.9262690688	 0.130644
