23
gdb 102596	2.11023	1.1319	0.78479	1.9922	82.03	-0.249	0.0712	0.3202	1498.4208	0.204897	-425.40352	-425.39311	-425.392166	-425.439414	37.978	
O	-0.1062783814	 1.434124072	 0.0146308724	-0.424772
C	-0.0551538611	 0.0132777341	 0.0650815203	-0.093483
C	-1.4746367829	-0.530314886	-0.1144614771	-0.033864
C	-2.0110143123	-0.1517707816	-1.5043754133	-0.071274
O	-3.3812936942	-0.478397907	-1.6985557271	-0.418575
C	-1.5163659249	-2.0360633811	 0.1382072338	 0.069806
C	-1.1439783635	-2.5916143785	 1.545332294	-0.236828
C	-2.2542544518	-3.6623601867	 1.3717455321	-0.225734
C	-2.8826183319	-2.7679570165	 0.2710903879	-0.21572
H	 0.7918708359	 1.7709639232	 0.0784710055	 0.287006
H	 0.5969569064	-0.388762755	-0.7287555216	 0.084213
H	 0.3520339869	-0.3307736321	 1.0275056007	 0.092916
H	-2.1017814067	-0.0296912137	 0.6401544928	 0.064971
H	-1.8252631053	 0.9145024789	-1.6851092275	 0.106657
H	-1.4651370414	-0.7157129357	-2.2711950751	 0.099881
H	-3.8994282966	 0.0840006912	-1.114382956	 0.280012
H	-0.9083079366	-2.5442981843	-0.6225788154	 0.064255
H	-0.1193527573	-2.9346085764	 1.7121716802	 0.090707
H	-1.4010405784	-1.8734697345	 2.3322408872	 0.096601
H	-1.853791144	-4.5933291821	 0.9593134745	 0.0991
H	-2.8656417718	-3.9065604597	 2.2437910473	 0.092639
H	-3.6452192271	-2.1016023335	 0.6854024174	 0.088029
H	-3.2946160098	-3.2435171252	-0.6200621429	 0.103458
