20
gdb 90365	2.2787	1.52299	1.28696	3.9537	79.14	-0.2386	0.0326	0.2711	1110.7097	0.170649	-403.170402	-403.1616	-403.160655	-403.203569	33.971	
C	-0.1449911331	 1.546169966	 0.0264148218	-0.419216
C	 0.0556224516	 0.0382767808	-0.0058756763	-0.000436
C	 1.1554541814	-0.5463705996	-0.9456174905	-0.257445
C	 1.8071085989	-1.2920096864	 0.2594246691	-0.255105
C	 2.8333937286	-0.3967770413	 0.9771221279	 0.431367
O	 4.0040131759	-0.1494742895	 0.8619038127	-0.368477
N	 1.8534835391	 0.105114288	 1.8136510256	-0.36666
C	 0.7413736892	-0.6563889153	 1.2228898933	 0.356063
C	-0.1150102394	-1.4187945919	 2.2074676328	-0.477506
H	 0.7967547934	 2.0693440382	 0.2218838807	 0.119019
H	-0.5280390362	 1.9076867928	-0.9337728646	 0.122272
H	-0.8636999078	 1.8396465041	 0.8003491649	 0.11336
H	-0.9039477485	-0.4533552635	-0.1984281359	 0.073329
H	 0.7671535067	-1.215374444	-1.7156976636	 0.108832
H	 1.8089704182	 0.1862452559	-1.4264350042	 0.116734
H	 2.0050470099	-2.3594646487	 0.18330678	 0.093334
H	 1.8531586062	 0.9567550544	 2.3594579252	 0.240634
H	-0.7354918315	-0.7353048067	 2.800047702	 0.119906
H	-0.78825426	-2.106207453	 1.6860657144	 0.122449
H	 0.5052135977	-1.9960348704	 2.8996827946	 0.127548
