18
gdb 104078	2.35717	1.521	1.23476	3.4829	74.49	-0.2185	-0.0283	0.1902	1078.4668	0.147519	-439.120357	-439.111481	-439.110537	-439.15366	33.417	
C	-0.1035620342	 1.5779123072	 0.0343479936	-0.4327
C	 0.0038802198	 0.0540077071	-0.016554115	 0.12309
C	-1.3760574355	-0.6289011036	-0.0895323003	-0.09715
O	-2.0442639529	-0.3649467792	-1.3157325785	-0.428156
N	 0.8334877874	-0.4127853463	-1.1323171731	-0.299857
C	 1.7850049386	-1.2646293108	-0.6472567937	 0.00903
C	 1.8383833535	-1.3160014513	 0.711542253	-0.280428
C	 0.761495561	-0.4898161597	 1.2290798842	 0.377675
O	 0.4379853858	-0.2241678909	 2.3714847648	-0.382829
H	 0.8875864892	 2.0344998451	-0.0226189187	 0.133618
H	-0.698163872	 1.9692674284	-0.7983384786	 0.099172
H	-0.5652670259	 1.8718510818	 0.981198453	 0.143564
H	-1.242819518	-1.7144013887	-0.0483147656	 0.121122
H	-1.9682475109	-0.3273097283	 0.783682009	 0.119797
H	-2.4098642663	 0.5239225781	-1.2753737734	 0.291998
H	 0.3755316123	-0.59662423	-2.0135172306	 0.25612
H	 2.4172430085	-1.7967837662	-1.3488157437	 0.133397
H	 2.5576890896	-1.8531962227	 1.3093672136	 0.112535
