22
gdb 74284	2.477	1.38969	1.12436	1.559	84.32	-0.2371	0.0355	0.2726	1222.5368	0.193638	-404.388056	-404.378537	-404.377592	-404.421789	36.516	
C	 0.026355338	 1.4762185723	-0.0288069366	-0.45106
C	-0.0616740149	-0.0214091233	 0.0306488157	 0.381555
N	-1.175502565	-0.6277081569	 0.0197377797	-0.324893
C	-1.2309338775	-2.0966269007	 0.0151932352	 0.277631
C	-1.6751677409	-2.5636613282	 1.4134241038	-0.399751
C	-2.2995570026	-2.4967715075	-1.0140008271	-0.402045
C	 0.1311584075	-2.7067033079	-0.3769406577	-0.245257
C	 1.256298886	-1.9723500009	 0.3346545204	-0.088787
O	 1.1886896214	-0.5643589031	 0.0860949762	-0.258665
H	 0.6297298139	 1.7847189581	-0.8887374774	 0.135636
H	-0.974360255	 1.8982383893	-0.1102843069	 0.141257
H	 0.5208868787	 1.8649186585	 0.8673480272	 0.134108
H	-2.5946721512	-2.0476756175	 1.7025660438	 0.126445
H	-1.8635461279	-3.6428235034	 1.4193755563	 0.10658
H	-0.9202648796	-2.3420043119	 2.1739547341	 0.107911
H	-2.031011627	-2.1295855842	-2.0091664161	 0.111182
H	-2.4069627292	-3.5858422165	-1.0641439139	 0.10211
H	-3.2652841606	-2.0606705208	-0.7439963593	 0.120039
H	 0.1727579776	-3.7745274623	-0.1358415075	 0.098615
H	 0.2755151988	-2.610011687	-1.4593853003	 0.104165
H	 1.2150764905	-2.1369499501	 1.4192724061	 0.109596
H	 2.2412770091	-2.2899602362	-0.0166646357	 0.113629
