17
gdb 81403	4.16029	1.14477	1.08614	5.436	72.	-0.241	0.0255	0.2666	1120.764	0.138181	-417.982425	-417.974884	-417.97394	-418.014319	29.607	
O	-0.0293646202	 1.3907221385	-0.1474490143	-0.439311
C	 0.0283077597	-0.0086170201	-0.0282990263	 0.130619
C	 0.0987705743	-0.6078670145	 1.4164970323	-0.055356
C	-1.3933644983	-0.2235140078	 1.554128529	-0.224189
C	-1.4049277613	-0.6177883543	 0.0449460838	-0.048543
C	-1.0477685947	-2.1183245196	 0.1250117147	-0.171384
N	 0.0160101357	-2.0675564869	 1.1856182387	-0.295135
C	-2.1723421264	-2.9784047925	 0.5154260285	 0.31778
N	-3.0694222483	-3.6490442972	 0.7992969214	-0.329543
H	 0.8372319703	 1.7481333574	 0.0712840491	 0.289568
H	 0.718951281	-0.4512382826	-0.7635492308	 0.057838
H	 0.8604098701	-0.332185436	 2.146356557	 0.07482
H	-2.0006429259	-0.808313205	 2.2464609309	 0.12404
H	-1.5398950119	 0.8453212273	 1.6890218443	 0.12694
H	-2.1931333345	-0.3250671663	-0.645889306	 0.096545
H	-0.6618961994	-2.4903492023	-0.8306445461	 0.11971
H	 0.8881240099	-2.424960378	 0.8071386637	 0.225601
