14
gdb 7030	6.79527	1.07144	0.94222	6.8283	65.31	-0.2432	-0.0153	0.2279	1170.3234	0.107331	-412.061526	-412.053001	-412.052056	-412.095552	28.817	
N	 0.5009750718	 1.0911974017	-0.3047904165	-0.395976
C	 0.117127252	-0.0457428317	 0.0968784508	 0.088564
N	-1.2130174726	-0.456060908	 0.1393959294	-0.374914
C	-2.3615857558	 0.35337933	 0.0324735802	 0.522853
O	-2.3736294409	 1.547702342	 0.0835719748	-0.29823
N	-3.4937368347	-0.4669368089	-0.1440579406	-0.374923
C	-4.8318237875	-0.0885850765	-0.0677078531	 0.088562
N	-5.2380774016	 1.001927458	 0.4293331308	-0.395974
H	 1.5161495559	 1.1511180793	-0.2493327594	 0.229759
H	 0.77326358	-0.8574722586	 0.4380044705	 0.092311
H	-1.3587705685	-1.4055603618	 0.4421320014	 0.24795
H	-3.3291997816	-1.3839732833	-0.5266992502	 0.247949
H	-5.4718234174	-0.8812281322	-0.4774682918	 0.092311
H	-6.2543014793	 1.04594747	 0.3783864839	 0.229759
