21
gdb 59071	2.05949	1.43644	1.06102	3.1124	83.9	-0.2451	0.0162	0.2613	1246.5362	0.18053	-383.266268	-383.256047	-383.255103	-383.301178	37.361	
C	 0.2262867642	 0.2208048014	-2.0160856813	-0.391581
C	 0.0503765663	 0.1973309016	-0.4960862957	 0.067165
C	 0.1216037805	 1.6031519374	 0.1037126887	-0.388132
N	-1.275778099	-0.3670967174	-0.1996503266	-0.090359
C	-1.5070856927	-1.8006093436	-0.1198488723	 0.001914
C	-0.4414000391	-2.8580671857	-0.3077946521	-0.428104
C	-1.5600769616	-0.9409776208	 1.1210753004	-0.187441
C	-0.517795245	-1.0816555181	 2.1091356946	 0.298415
N	 0.3122741871	-1.1737340192	 2.9106205686	-0.351397
H	 1.193879371	 0.658639558	-2.2787318156	 0.118521
H	 0.1853713033	-0.7861424743	-2.4413632845	 0.11536
H	-0.5637878201	 0.8181774672	-2.4816042142	 0.126807
H	 0.8590466743	-0.4046206266	-0.0551870975	 0.084395
H	 0.0255429676	 1.5749281417	 1.1926732668	 0.12995
H	 1.0822767094	 2.0685736411	-0.135545483	 0.117088
H	-0.6804624745	 2.2298012533	-0.2984300152	 0.122544
H	-2.4798432274	-2.0860733197	-0.5194180671	 0.105739
H	 0.4957872881	-2.6105047355	 0.1932165847	 0.149386
H	-0.7960349585	-3.808148516	 0.1041338673	 0.134887
H	-0.2376813007	-3.0142598716	-1.3716887398	 0.131839
H	-2.5205403231	-0.6628310534	 1.5479816538	 0.133003
