18
gdb 117480	5.76759	0.57016	0.52387	3.5489	70.83	-0.2517	-0.0333	0.2184	1999.1245	0.144909	-476.259849	-476.249371	-476.248427	-476.298076	34.932	
O	-0.1705997489	 1.4543871557	 0.0107755575	-0.4221
C	 0.0240327682	 0.049399432	 0.001939948	-0.076089
C	-1.359336296	-0.586157709	 0.0121935181	-0.284192
C	-1.3256947867	-2.0977770366	 0.0042755092	 0.350695
O	-0.2906142901	-2.7301294969	-0.0094851622	-0.311344
C	-2.6731974462	-2.8076243665	 0.0145907008	-0.223063
N	-2.4750118814	-4.2330557123	 0.0065046746	-0.282477
C	-3.5092598844	-5.1074602177	 0.0069553991	 0.154365
O	-4.6801027743	-4.7859556808	 0.0166089205	-0.328675
H	 0.6931975349	 1.8767763946	 0.0044293732	 0.290784
H	 0.5758373159	-0.2824131023	-0.8889552366	 0.105245
H	 0.5929560245	-0.2911412641	 0.8786707833	 0.105217
H	-1.9214810675	-0.2459191712	 0.8917663704	 0.141398
H	-1.9382806791	-0.2373076911	-0.8530114003	 0.14144
H	-3.245750321	-2.4856605137	 0.8958045158	 0.148014
H	-3.2628523341	-2.4783360105	-0.8525587376	 0.148139
H	-1.5134129301	-4.5431774179	-0.0049279086	 0.263265
H	-3.1655279839	-6.1604571517	-0.002030095	 0.079378
