19
gdb 107451	3.46203	1.34245	1.17413	2.0541	73.78	-0.2581	0.079	0.3372	1097.3641	0.160482	-423.002945	-422.995308	-422.994364	-423.034799	30.821	
O	 0.51759957	 0.7782853719	-0.867724806	-0.416868
C	 0.0207642621	 0.3274921797	 0.3719619908	-0.169362
C	-1.4215971435	-0.1117535294	 0.2671402701	 0.378064
O	-1.7355287863	-0.7894778859	-0.9716593507	-0.312011
C	-2.3972021231	 0.4617919177	-0.6736011607	-0.017268
C	-3.8009412957	 0.3126905957	-0.1057066748	-0.262007
C	-3.6383139278	-0.4378404495	 1.221670275	-0.043338
C	-3.0739184207	-1.8341672223	 1.2290185663	-0.285547
C	-2.1553573781	-0.659892601	 1.4724845607	-0.1206
H	 0.2083061206	 0.1329105474	-1.5175995139	 0.292099
H	 0.6197877684	-0.5090088406	 0.7710080218	 0.0965
H	 0.1060468457	 1.1565375377	 1.0841171667	 0.115378
H	-2.1571763479	 1.2700108395	-1.3591609168	 0.104592
H	-4.2140449398	 1.3115933034	 0.0759170585	 0.108992
H	-4.4720891809	-0.1928992717	-0.8086433172	 0.117333
H	-4.2969074559	-0.1611978007	 2.0374787235	 0.087908
H	-3.3163270552	-2.4562619704	 2.0840047405	 0.107667
H	-2.9666794799	-2.3618135549	 0.2894832858	 0.134677
H	-1.703438272	-0.5161051366	 2.4472542806	 0.08379
