25
gdb 103850	2.844	0.92472	0.85527	0.1099	94.25	-0.2395	0.0877	0.3272	1554.046	0.227793	-352.33885	-352.328461	-352.327517	-352.374487	39.397	
C	 0.206460643	 1.5461017993	 0.2137159972	-0.381809
C	-0.1963570226	 0.1112733285	-0.1523065126	-0.241639
C	 0.6066721849	-0.4851326139	-1.3010783831	 0.361416
C	 0.432109227	 0.2211357885	-2.6349451906	-0.459955
C	 1.9742580331	-1.060946032	-0.9968011571	-0.345783
C	 0.8335138382	-1.9863682568	-1.3622392475	-0.053973
C	 0.2742017301	-2.9645489059	-0.376392415	 0.018581
C	-0.9210458763	-3.813762826	-0.7391508125	-0.268215
C	 0.4425384331	-4.4469523072	-0.6128701397	-0.276694
H	 1.2708730616	 1.602486738	 0.4658862383	 0.115868
H	 0.0229203666	 2.2445609081	-0.6084098306	 0.116393
H	-0.3629313298	 1.9013891352	 1.0784359602	 0.108288
H	-0.088800007	-0.5186049132	 0.7363755716	 0.091933
H	-1.2639257891	 0.087209646	-0.4108207965	 0.092921
H	 0.7767937315	 1.2602615723	-2.5947055351	 0.115415
H	 1.0014182389	-0.2799205332	-3.4242291312	 0.109509
H	-0.6214144923	 0.2321945143	-2.9404205433	 0.110967
H	 2.7791950326	-0.9120986525	-1.7096633828	 0.101929
H	 2.2997477483	-1.0650290754	 0.0396374586	 0.102639
H	 0.8688680479	-2.3876734787	-2.3739403319	 0.069582
H	 0.3321777728	-2.6558412545	 0.6629615113	 0.07938
H	-1.6606809043	-4.0220480414	 0.0262520645	 0.107884
H	-1.3354465138	-3.6991456492	-1.7355437325	 0.108635
H	 0.9442247722	-4.7574940002	-1.5237630019	 0.109067
H	 0.6378875534	-5.08793538	 0.239890132	 0.107661
