19
gdb 98430	2.70501	1.23024	0.98811	1.5714	73.99	-0.246	0.0069	0.2529	1268.3769	0.156261	-460.182971	-460.172819	-460.171875	-460.218187	36.286	
C	-0.1427055619	 1.3360019966	 0.104561336	-0.242811
O	 0.0564245801	-0.081324036	 0.0242230333	-0.254414
C	 0.552098757	-0.5286583406	-1.1525397412	 0.397644
O	 0.8109599395	 0.2007676424	-2.0801986085	-0.375584
C	 0.6684857036	-2.0179885561	-1.1471735275	 0.264347
O	 0.330420521	-2.6702860985	 0.0401082998	-0.466332
C	 0.3515004382	-2.7166797057	-2.4688432124	-0.335555
C	 1.7585899642	-2.7130671542	-1.9383802251	-0.020519
C	 2.8930748376	-1.9995734435	-2.6368940002	-0.42732
H	 0.8065336721	 1.8627164424	-0.0185926353	 0.145446
H	-0.8342028963	 1.672173045	-0.6718900403	 0.143498
H	-0.5568592073	 1.5215874224	 1.0954919867	 0.134919
H	-0.4099068717	-2.1949266514	 0.4325525569	 0.288097
H	-0.2326399753	-3.6257408988	-2.3843935942	 0.121821
H	 0.1273979612	-2.0770808196	-3.3155972094	 0.131466
H	 2.0412992092	-3.6347556661	-1.4355927129	 0.108299
H	 2.5600821431	-1.0587900537	-3.0767153923	 0.154033
H	 3.7080953706	-1.7808864528	-1.9385955196	 0.11727
H	 3.2978508051	-2.6336251019	-3.4332837137	 0.115695
