17
gdb 127952	3.9358	1.14062	0.89419	0.4105	83.78	-0.2236	-0.0636	0.16	1290.903	0.135929	-414.173315	-414.164675	-414.16373	-414.206681	31.491	
C	 0.0382625587	 1.4619921147	-0.0586203144	-0.346129
N	 0.1081077161	 0.0158759064	-0.1455158322	-0.320615
C	 0.5705178085	-0.6311229498	 0.8556164351	 0.46292
N	 1.0263839066	-0.0596704528	 2.0585176024	-0.319574
N	 1.5213846334	-0.6988744209	 3.1377347464	-0.046459
N	 1.6088975141	-1.9604518724	 3.1256677378	-0.260043
C	 1.1914400631	-2.6801300362	 1.9940216079	 0.370851
C	 1.3569691738	-4.1621484032	 2.1342955971	-0.457489
C	 0.6921643367	-2.0693343702	 0.8975048564	-0.261446
H	 1.0266032805	 1.9315904429	 0.0830620928	 0.109046
H	-0.375308347	 1.8589163734	-0.9887182959	 0.131743
H	-0.6125461378	 1.811690656	 0.7608309603	 0.109124
H	 1.0061444682	 0.9403747372	 2.1840118998	 0.276435
H	 2.406851136	-4.4099264928	 2.3228526948	 0.148343
H	 0.7873530537	-4.5271608487	 2.9954314876	 0.14834
H	 1.0228688214	-4.6882387428	 1.2379663325	 0.12892
H	 0.3688683139	-2.618046271	 0.0212672816	 0.126033
