16
gdb 85478	2.49542	1.50376	1.11291	4.2167	72.16	-0.2564	0.0096	0.266	1106.3983	0.123311	-437.872557	-437.864145	-437.8632	-437.905828	31.227	
C	-0.4647112878	 1.5339119923	 0.012268455	-0.418739
C	 0.1810220835	 0.1684292254	-0.0771554965	 0.105918
O	 1.2936448078	 0.2067378208	-0.9802924389	-0.235815
C	 2.2218668034	-0.6928125713	-0.5850932284	 0.492023
N	 3.204132254	-1.016603114	-1.2964629356	-0.574718
O	 1.9180545509	-1.1761558991	 0.6613301132	-0.246541
C	 0.8319021065	-0.4060404446	 1.2084916205	-0.115077
C	 1.3235333552	 0.5861379313	 2.1588376902	 0.364139
C	 1.7215871182	 1.3953798494	 2.9522524064	-0.468439
H	 0.249359072	 2.2760513437	 0.374270079	 0.148205
H	-0.8257886823	 1.8367225531	-0.9735440864	 0.140763
H	-1.3173771945	 1.5030240511	 0.6971673813	 0.128613
H	-0.5369949774	-0.5726112588	-0.452954597	 0.102291
H	 3.8036117204	-1.6653149434	-0.7919894827	 0.233667
H	 0.1584104398	-1.1043407623	 1.7129481349	 0.129443
H	 2.0802971405	 2.1082111763	 3.6539829249	 0.214267
