21
gdb 121178	2.33957	1.01981	0.77422	4.5349	83.35	-0.2492	0.016	0.2652	1527.6008	0.183039	-383.266268	-383.256603	-383.255659	-383.301516	34.95	
C	-0.016474669	 1.5870300844	 0.2160449626	-0.381731
C	-0.019935969	 0.0718643746	-0.0042604932	-0.17668
C	-1.4255067209	-0.535994374	 0.0745378712	-0.175108
C	-1.4298023484	-2.0484308526	-0.1229551865	-0.020439
C	-0.9813360646	-2.8836277726	 1.1097923072	-0.175951
N	-2.4059812052	-3.1118832619	 1.4455649361	-0.298804
C	-2.8147857798	-2.7586941307	 0.0719565975	-0.146528
C	-4.0391476745	-1.9625823423	-0.0364670998	 0.304034
N	-5.0024319342	-1.3330664713	-0.1456161005	-0.33367
H	 0.99595578	 1.9969184491	 0.1493512517	 0.112665
H	-0.6335249404	 2.0965435896	-0.5320008405	 0.119452
H	-0.4166919208	 1.8433582085	 1.2029484441	 0.119256
H	 0.4188911369	-0.1586124212	-0.9843101052	 0.095471
H	 0.6310753763	-0.4064336771	 0.7391971816	 0.098187
H	-1.88187758	-0.2968352909	 1.0434117744	 0.118487
H	-2.0654511929	-0.0721262558	-0.6869344719	 0.112908
H	-0.9394844319	-2.3123161111	-1.0628199468	 0.083507
H	-0.4272145945	-3.7890218623	 0.8272190592	 0.096566
H	-0.4215176839	-2.3557120897	 1.8886298736	 0.112063
H	-2.6599218829	-4.0454064082	 1.7485722729	 0.228222
H	-2.9120070202	-3.6162707645	-0.6096520277	 0.108093
