19
gdb 113909	4.04296	0.75243	0.72481	3.0487	72.7	-0.2387	0.0305	0.2692	1578.6148	0.15965	-456.346612	-456.336958	-456.336014	-456.382308	35.021	
N	-0.3509079826	 0.2825052497	 1.1165963087	-0.504787
C	-0.0030268215	 0.0330059713	-0.178855637	 0.369052
O	 0.9380242613	 0.5620209932	-0.7361574897	-0.358332
C	-0.9442881456	-0.9517916345	-0.8865266871	-0.311359
C	-1.0015634322	-2.3062538547	-0.2044876085	-0.024593
N	-1.6901423395	-2.3845057165	 1.1029036962	-0.356919
C	-2.2240795474	-3.1421626655	-0.050853976	-0.043792
C	-3.6168225508	-2.752693548	-0.4876730493	-0.066609
O	-4.5830515011	-3.2098533897	 0.4435780203	-0.418613
H	 0.2655033471	 0.8566198368	 1.6683235305	 0.2548
H	-1.0377308338	-0.300721601	 1.5723092895	 0.266588
H	-1.9400770801	-0.5015594308	-0.9268136349	 0.12293
H	-0.5791645075	-1.0633061447	-1.909565506	 0.130758
H	-0.0698893306	-2.8645785868	-0.2820887211	 0.102813
H	-1.1845753647	-3.0007809141	 1.7325591566	 0.240896
H	-2.0655664614	-4.2190854469	-0.0289445778	 0.099319
H	-3.6875529145	-1.6659849573	-0.6306272194	 0.093423
H	-3.8586635578	-3.2310092124	-1.4425022353	 0.116188
H	-4.3487382073	-2.8154373382	 1.2916328303	 0.288239
