16
gdb 31866	4.91342	1.01771	0.84807	1.2709	77.22	-0.2146	-0.0322	0.1824	1301.6413	0.125863	-434.113902	-434.105562	-434.104618	-434.147419	30.801	
N	-0.0260637357	 1.3815804752	 0.1334337295	-0.567872
C	-0.0016123109	 0.0040284374	 0.0495426354	 0.360827
C	-1.1872735252	-0.7596243143	 0.0323832651	-0.075613
N	-1.1661527278	-2.0807849327	 0.003184494	-0.288396
C	 0.0331026573	-2.6822880502	-0.003352199	 0.268418
C	 0.0239187493	-4.1898751106	-0.0304489624	-0.154862
O	 1.3577886375	-4.6658305281	-0.0555293644	-0.417448
C	 1.201190778	-1.92780969	 0.0119982901	-0.05483
N	 1.1920130055	-0.5911563384	 0.0328479443	-0.317425
H	 0.8492549439	 1.8210601286	-0.1105937288	 0.256873
H	-0.8410722418	 1.847095798	-0.2337130506	 0.253295
H	-2.1612404685	-0.2734935051	 0.0428968998	 0.098285
H	-0.5219866505	-4.555950523	 0.8538365412	 0.107661
H	-0.544571502	-4.5242466447	-0.9129503071	 0.107008
H	 1.3333948538	-5.6261450267	-0.0588973498	 0.293395
H	 2.1695021472	-2.4147473755	 0.0008534027	 0.130685
