22
gdb 88690	3.16419	0.95245	0.87599	1.5391	84.31	-0.2176	0.0749	0.2924	1444.741	0.191843	-404.298346	-404.288299	-404.287355	-404.33341	37.875	
C	 2.8354726459	-0.3309573839	 0.1422367053	-0.307248
N	 1.677262353	-1.1880978877	 0.345514045	-0.089718
C	 1.8189276813	-2.3163384981	 1.258129116	-0.262182
C	 0.9578342936	-1.1526909984	 1.6244499055	 0.00041
C	 1.3381891091	-0.2348858593	 2.7422454841	-0.042325
C	 0.584569399	 1.0686948736	 2.9832834452	-0.365237
C	 0.4972036164	-0.0623809177	 3.9788642599	 0.383028
C	-0.8019250969	-0.8043781732	 4.1980555173	-0.446811
O	 1.2792300285	 0.05615596	 5.1437167104	-0.465539
H	 3.5112814792	-0.2535477948	 1.0081782256	 0.099716
H	 3.4153717727	-0.7249651754	-0.698673506	 0.120481
H	 2.4998850474	 0.6774112345	-0.1200118887	 0.123136
H	 1.3848398411	-3.2588430579	 0.9329228837	 0.110295
H	 2.7590075629	-2.4160213855	 1.8016288144	 0.104889
H	-0.1163533965	-1.2635890127	 1.4849342173	 0.082489
H	 2.3989488683	-0.1840883719	 2.9624632786	 0.098539
H	 1.1675391035	 1.9397970162	 3.2607261169	 0.111275
H	-0.2814270218	 1.2731424861	 2.3608212989	 0.10997
H	-1.3880704063	-0.8883773921	 3.2797982462	 0.121769
H	-0.6112888917	-1.8108833252	 4.5836112595	 0.128522
H	-1.4205584946	-0.2731311486	 4.9321797403	 0.106233
H	 0.803811346	 0.627092802	 5.7582881449	 0.278309
