17
gdb 29999	3.25035	1.70301	1.12545	3.3732	81.86	-0.1747	0.0495	0.2242	1047.6464	0.138306	-380.911343	-380.903223	-380.902279	-380.945638	30.08	
C	 0.0118285527	 1.4507113851	 0.0548644505	-0.350228
N	 0.0089558964	 0.0093869666	 0.0206585928	-0.139938
C	-0.0374824821	-0.8005901229	-1.119170379	-0.092031
C	-0.0280996618	-2.126793975	-0.7620027932	-0.356959
C	 0.0265427966	-2.1709944166	 0.6700099606	 0.300562
C	 0.0465408146	-0.84387926	 1.085882161	 0.391144
N	 0.0991346512	-0.768666001	 2.4495542804	-0.420036
C	 0.1131835818	-2.0825065163	 2.9245573358	-0.072745
C	 0.0699853085	-2.9583804227	 1.867158913	-0.323436
H	 0.9181646301	 1.8397870515	 0.5359024556	 0.130681
H	-0.0193758277	 1.8306394053	-0.9677137401	 0.144679
H	-0.8613033792	 1.8428668469	 0.5916997959	 0.130741
H	-0.0735006302	-0.33575264	-2.0920756446	 0.109675
H	-0.0565876728	-2.9557921746	-1.4522923705	 0.091694
H	 0.1226137797	 0.0557891383	 3.0204850904	 0.256477
H	 0.1529948971	-2.2668128346	 3.9860969732	 0.110536
H	 0.0701827352	-4.03413076	 1.9538418182	 0.089185
