16
gdb 129594	3.05106	1.30629	0.96552	3.495	72.04	-0.2136	0.0276	0.2412	1175.1457	0.126125	-434.053505	-434.045315	-434.04437	-434.087332	29.964	
N	 0.2062478178	 1.2837484316	 0.7862893311	-0.611541
C	 0.0540528789	 0.0334165419	 0.1887114599	 0.27642
C	-1.0393241251	-0.5875430053	-0.4042100709	 0.192851
C	-0.5555945429	-1.8796497336	-0.7347631045	-0.08443
N	 0.7116598627	-2.0546019088	-0.3964604606	-0.235429
N	 1.0611518329	-0.8716284321	 0.174941165	-0.2368
C	-2.3546912987	 0.0253863629	-0.6480693675	-0.088405
C	-3.5407405366	-0.74235447	-1.0487340932	-0.177875
O	-3.4377875621	-0.2426908017	 0.2785557959	-0.233634
H	 0.9568524405	 1.8403273813	 0.3945368472	 0.253495
H	-0.6532055864	 1.8162281373	 0.7809005969	 0.262659
H	-1.0900603591	-2.6791946708	-1.2273844239	 0.108685
H	 1.9757205221	-0.770237733	 0.5811487452	 0.270271
H	-2.3299007876	 1.074923513	-0.9499058225	 0.077593
H	-4.297723496	-0.2744773035	-1.6780345325	 0.109576
H	-3.4702733206	-1.824824519	-1.1475970257	 0.116564
