27
gdb 118227	3.52743	0.61795	0.60295	0.8909	93.99	-0.2504	0.0805	0.3308	2063.5956	0.249135	-390.696302	-390.684166	-390.683222	-390.734247	43.463	
C	-0.0256510891	 1.4825918198	 0.0111226943	-0.226679
O	 0.0860529786	 0.0847911266	-0.0849324115	-0.234219
C	 0.6149337277	-0.5088096409	 1.0825154648	-0.052827
C	 0.7397017617	-2.01878571	 0.8697713571	-0.003718
C	 1.702182365	-2.3228084837	-0.2860068384	-0.391299
C	 1.1561280001	-2.6880019782	 2.1925307221	-0.173008
C	 1.2297442057	-4.2271425151	 2.195446237	 0.030096
C	 1.7750314984	-4.7251211017	 3.5414815793	-0.386838
C	-0.1251460235	-4.8804384019	 1.8888389386	-0.381823
H	 0.9529886449	 1.962457561	 0.173909144	 0.101566
H	-0.4431767143	 1.8453285516	-0.9315991034	 0.124575
H	-0.69320714	 1.7854558573	 0.8341080646	 0.101056
H	 1.6039768203	-0.0740757334	 1.3167624746	 0.07814
H	-0.0417884432	-0.2978495591	 1.9443389519	 0.079041
H	-0.2613192356	-2.3709498798	 0.5896315871	 0.08368
H	 2.7308807839	-2.0520049142	-0.0166814764	 0.104357
H	 1.6968505409	-3.3832511455	-0.5535798833	 0.111551
H	 1.4224320903	-1.7476446151	-1.171504566	 0.130282
H	 2.1397942923	-2.2940668739	 2.4866114794	 0.085836
H	 0.457971151	-2.3770920021	 2.9837259439	 0.085078
H	 1.9393985212	-4.5391782188	 1.4176457687	 0.075704
H	 1.1043843337	-4.4471733645	 4.3637701945	 0.109715
H	 1.8741967688	-5.8156886007	 3.5502009576	 0.107692
H	 2.7596045031	-4.2967205283	 3.7574833067	 0.107895
H	-0.5015824093	-4.6060325384	 0.8990652485	 0.116526
H	-0.0474568586	-5.9723036491	 1.9207692304	 0.10835
H	-0.8793355239	-4.5808657819	 2.627031064	 0.109272
