15
gdb 52504	4.75868	0.49327	0.45509	4.5784	90.81	-0.2473	-0.0305	0.2168	2303.8845	0.109317	-420.599863	-420.589677	-420.588732	-420.639208	32.876	
C	-0.2168141469	 1.1891691122	-0.1933232245	-0.519088
C	-0.0931076344	-0.2467169847	-0.0259297958	 0.263764
C	 0.0077513187	-1.4444856172	 0.1150309732	-0.191346
C	 0.1182192872	-2.7893796415	 0.2732102418	-0.280091
C	 0.2166491372	-3.987581612	 0.4143529498	 0.377884
C	 0.3318858046	-5.4269971851	 0.5773694362	-0.284126
O	-0.9479813454	-6.0857672467	 0.6463663119	-0.165736
C	-1.548287964	-6.3573113143	-0.5325319795	 0.183607
O	-2.6207273677	-6.8743830012	-0.5996056435	-0.265041
H	 0.0994926927	 1.5002764749	-1.19510728	 0.161094
H	-1.2546930773	 1.5117814754	-0.0544661704	 0.163637
H	 0.4001790753	 1.7259403974	 0.5358475942	 0.161669
H	 0.9306711868	-5.8608607854	-0.2349871769	 0.145967
H	 0.8280244391	-5.6760889855	 1.5195778174	 0.163081
H	-0.9374624359	-6.0611587163	-1.4073006339	 0.084725
