17
gdb 36513	4.25472	0.96804	0.83167	5.7322	73.96	-0.265	0.0078	0.2728	1331.5081	0.138007	-418.037919	-418.029851	-418.028907	-418.071232	29.534	
N	-0.0453721251	-1.2029114407	 0.0274361687	-0.307908
C	-0.0226347211	-0.0483539867	 0.0574492312	 0.278743
C	-0.0062582123	 1.4124639178	 0.0565618483	-0.349784
C	 1.4218188965	 1.997333117	 0.0792390385	 0.04246
C	 1.404335165	 3.5188186482	-0.1163691502	-0.250002
C	 2.7996567809	 4.0586956007	 0.1725036564	-0.081584
O	 3.2570316253	 3.6525129932	 1.471860887	-0.220675
C	 2.8495766642	 2.4325059644	 1.8877993772	 0.13495
N	 2.0602073868	 1.6133263172	 1.3344954978	-0.268487
H	-0.5390980684	 1.7639552024	-0.8344736236	 0.144255
H	-0.5560390022	 1.7736532636	 0.9325466589	 0.153787
H	 1.9823001088	 1.5337550617	-0.7437380683	 0.109458
H	 1.1032406241	 3.7930346696	-1.1326973839	 0.113278
H	 0.6861531506	 3.9732665304	 0.5769415822	 0.117939
H	 3.5186835002	 3.6962539786	-0.57304543	 0.121194
H	 2.82811562	 5.1503803884	 0.1744992437	 0.127113
H	 3.3077755465	 2.1981526243	 2.8467496661	 0.135263
