20
gdb 55136	3.28838	1.33675	1.18782	2.1199	78.51	-0.2373	-0.0163	0.2209	1119.2964	0.17222	-403.1339	-403.125805	-403.124861	-403.167281	31.193	
C	 0.1698347688	 0.9123745062	 0.9082094551	-0.475718
C	-0.0238339411	 0.1423899143	-0.380917717	 0.369314
O	 0.7813103549	 0.1710024929	-1.2842775608	-0.298177
C	-1.3049399438	-0.6931643976	-0.4580109238	-0.051616
C	-1.5410911736	-1.4618744514	-1.7949270783	-0.256299
C	-1.5948816066	-2.8798098009	-1.194908611	-0.024854
C	-2.4325638537	-2.6295183757	 0.0837704555	-0.171099
N	-1.25187148	-1.8010823872	 0.563226348	-0.147059
C	-0.4112742007	-2.8189568593	-0.2006771188	-0.187911
H	 1.1625966918	 1.3628216405	 0.9330937384	 0.13593
H	-0.5890148634	 1.7006625591	 0.9839546943	 0.136704
H	 0.0193311805	 0.2436123909	 1.7607137434	 0.161201
H	-2.1452750394	-0.042453829	-0.191007015	 0.084711
H	-2.4731328712	-1.1728116468	-2.2876053135	 0.095761
H	-0.711747443	-1.3180815663	-2.4900870703	 0.128916
H	-1.7662586901	-3.7168029647	-1.8735705584	 0.06492
H	-3.378560885	-2.0843477418	 0.0073361099	 0.09828
H	-2.5507402891	-3.507219932	 0.7235121905	 0.108341
H	-0.2891076321	-3.7168676989	 0.4083799296	 0.107652
H	 0.5589255968	-2.4582829724	-0.5503336978	 0.121004
