13
gdb 4307	4.02197	1.98717	1.34099	4.114	62.26	-0.2611	-0.0596	0.2015	854.64	0.097443	-394.858283	-394.851552	-394.850607	-394.889491	24.31	
C	-0.0230610331	 1.4804128628	 0.0285663737	-0.453389
C	 0.0035997313	-0.0173563096	-0.0166661217	 0.349547
N	-0.0337980204	-0.6080146901	-1.1796372025	-0.331157
C	-0.0096358993	-1.9897859387	-1.2383210055	 0.438056
O	-0.0386763943	-2.6610543279	-2.2403147878	-0.365972
N	 0.0559742607	-2.6265517531	 0.0345742033	-0.318113
C	 0.0905849156	-1.9250381468	 1.1811853983	 0.11691
N	 0.0674239744	-0.6294972934	 1.2234160722	-0.304871
H	 0.8714356201	 1.8490175787	 0.5415256007	 0.147953
H	-0.0753026831	 1.8934022667	-0.9777883077	 0.148143
H	-0.8819954504	 1.8156248613	 0.6192414233	 0.147904
H	 0.075133921	-3.6373577836	 0.0281515554	 0.277771
H	 0.1403526674	-2.4989996063	 2.1046991783	 0.147217
