21
gdb 90949	2.78895	1.65634	1.49822	1.6272	79.65	-0.2521	0.0699	0.3221	990.7026	0.186718	-387.108562	-387.101315	-387.100371	-387.139952	30.441	
O	 0.2956488923	 1.180468067	-0.6195661128	-0.448042
C	 0.0601253329	-0.0827437536	-0.0095286909	 0.147639
C	 0.741690151	-0.2087016775	 1.3832600576	-0.265633
C	-0.1998606722	-0.7244088783	 2.4622520963	-0.030066
C	-1.3054790609	-1.6962841278	 2.1184723303	-0.052089
C	-1.5830104499	-1.86111713	 0.6307312508	-0.232668
C	-1.4402413766	-0.4169925019	 0.0979713326	-0.051535
C	-2.0992629343	 0.4340591513	 1.2082106837	-0.237213
C	-1.6401074367	-0.2609460163	 2.4825673729	-0.050426
H	-0.0581655633	 1.8621200118	-0.0383577339	 0.274247
H	 0.5141223862	-0.7943026792	-0.7071851987	 0.083671
H	 1.6231212356	-0.8559121494	 1.3160546693	 0.103937
H	 1.1212301958	 0.7810371484	 1.6671727112	 0.096539
H	 0.2604115236	-0.8648766097	 3.4360671192	 0.077612
H	-1.5187074762	-2.5147721912	 2.7964892954	 0.07611
H	-0.8976028189	-2.5558893729	 0.1308165261	 0.093273
H	-2.6010483755	-2.2368387452	 0.4747741981	 0.095974
H	-1.9036486213	-0.2713932635	-0.8806476017	 0.069233
H	-1.8117642662	 1.4925788234	 1.1592327153	 0.07548
H	-3.1918645319	 0.4040467626	 1.126037331	 0.098959
H	-2.1056317836	-0.0091530981	 3.4287429583	 0.074998
