17
gdb 131507	3.67016	1.35242	1.15129	2.7789	73.97	-0.2367	0.0141	0.2508	1064.9742	0.139616	-418.032155	-418.024967	-418.024023	-418.063721	28.653	
O	 0.0551688828	 1.417591296	-0.0121774042	-0.433353
C	 0.0295073163	-0.0019142852	-0.029426488	 0.13051
C	-1.4431923351	-0.5362669952	-0.0590245658	-0.379378
C	-1.6793525123	-0.6889621424	-1.5328397738	 0.230806
C	-2.6419303549	-0.8427755149	-2.5033659686	-0.228134
N	-1.9583527403	-0.9366504429	-3.6812743786	-0.18359
N	-0.6124122363	-0.8511029874	-3.545678057	-0.334816
C	-0.4577638899	-0.7044636072	-2.2380707678	 0.321144
C	 0.7173112906	-0.5624314945	-1.3156740329	-0.360086
H	-0.3876259219	 1.7240325112	-0.8125698511	 0.281949
H	 0.553226842	-0.3042457246	 0.8805237709	 0.084622
H	-1.5192537816	-1.4975241595	 0.4659030003	 0.110096
H	-2.1010178726	 0.1700389252	 0.4550406038	 0.115018
H	-3.719244677	-0.8917207964	-2.4783673766	 0.134364
H	-2.3455113681	-1.0311723986	-4.6047908452	 0.272757
H	 1.4983698259	 0.1203014982	-1.6592998105	 0.123337
H	 1.1880323724	-1.5340418618	-1.1190141151	 0.114753
