16
gdb 123555	3.97069	1.54792	1.21985	3.5765	73.66	-0.2324	-0.0075	0.225	985.9469	0.127659	-400.732375	-400.726116	-400.725172	-400.762907	25.586	
C	-0.0218915581	 1.4771191128	 0.0714554314	-0.280481
C	 1.3044032869	 0.7605705488	 0.0325892999	-0.028362
C	 2.0260278543	 0.4296875107	 1.3568569022	-0.375634
C	 1.0225423058	-0.4851354775	 1.9889478702	 0.376845
C	-0.0662560211	-0.7667200444	 1.2287593246	 0.190338
C	-0.8280155259	-1.6152513497	 2.0687350686	-0.136664
N	-0.2344084914	-1.8162601939	 3.2279399694	-0.145249
O	 0.9625744061	-1.0706870548	 3.1826444176	-0.226859
C	-0.0098401443	-0.0324534323	-0.0601090416	-0.198762
H	-0.3693518233	 1.8983323922	 1.0096805525	 0.119598
H	-0.286399147	 2.0568354188	-0.8070035085	 0.116503
H	 1.9180884589	 0.8947030898	-0.8497963338	 0.096185
H	 2.9862532637	-0.0698058785	 1.1808739268	 0.129955
H	 2.2322095496	 1.3206579189	 1.9602559266	 0.133868
H	-1.77780238	-2.1015124233	 1.8943205053	 0.131453
H	-0.3307049444	-0.4923932176	-0.9870560712	 0.097267
