21
gdb 65037	2.57094	1.39944	1.24002	1.5055	77.55	-0.2573	0.0621	0.3194	1138.4114	0.180281	-424.196799	-424.187292	-424.186348	-424.230878	36.179	
C	-0.0056276017	 1.4802356221	-0.5614100193	-0.470247
C	-0.0249809808	 0.0443719344	-0.0884467338	 0.400651
C	 1.1679008066	-0.7984031677	-0.2348747768	-0.229828
O	 0.812211484	-0.2455332216	 1.0393326905	-0.28467
C	-1.3964787284	-0.6054469959	-0.0300024511	 0.335063
O	-1.8934571402	-0.559885619	-1.3611933371	-0.489821
C	-1.5300229376	-2.0031985899	 0.6468816101	-0.273501
C	-2.7932378097	-1.4975012673	 1.3973643572	-0.238564
C	-2.3918049873	-0.0415474867	 1.0348318038	-0.273994
H	 1.0125129002	 1.8760460628	-0.5388341857	 0.119821
H	-0.3979667921	 1.5466780939	-1.5788488336	 0.141426
H	-0.6299251498	 2.1078336705	 0.083599047	 0.122991
H	 1.0657655718	-1.8789485966	-0.3180850904	 0.113099
H	 2.0662488348	-0.381399658	-0.6874499205	 0.112547
H	-2.8021840974	-0.87744251	-1.3574707063	 0.280949
H	-1.6450889826	-2.8454207035	-0.0401438604	 0.094138
H	-0.6998330181	-2.1958449225	 1.3292077647	 0.124211
H	-3.7260355263	-1.8114947955	 0.919247637	 0.094613
H	-2.8628706865	-1.7382034404	 2.4597524525	 0.105886
H	-1.8653683231	 0.4563309985	 1.8533353322	 0.118931
H	-3.1677560459	 0.6275463925	 0.65295761	 0.0963
