18
gdb 10501	3.07411	1.32653	1.0388	1.3638	78.02	-0.2286	0.0455	0.2741	1199.0652	0.150967	-347.75562	-347.746178	-347.745234	-347.790921	32.926	
C	 0.0906048054	 1.2474949925	 0.2438386133	-0.24834
O	-0.2133653402	-0.0708539827	-0.1758839379	-0.264179
C	 0.6001599978	-0.5332787841	-1.2187607025	 0.260533
C	 1.952816162	-1.1097123014	-0.8261617647	-0.317597
C	 0.8143559209	-2.0243554047	-1.203376979	-0.313614
C	 0.4670736417	 0.1582177454	-2.4779749486	 0.098395
C	 0.3436214316	 0.7549880404	-3.5178707695	-0.005822
C	 0.1906538205	 1.4643579109	-4.7796848387	-0.50023
H	 1.1243384985	 1.3265522824	 0.6103258177	 0.104235
H	-0.0486265936	 1.9712171467	-0.5697630288	 0.118455
H	-0.5977569269	 1.4838822986	 1.058238266	 0.124412
H	 2.780128059	-0.9917164918	-1.5158139253	 0.122114
H	 2.2089581433	-1.0412959375	 0.2251346691	 0.121812
H	 0.3120860622	-2.55607547	-0.4036543421	 0.128595
H	 0.8497064529	-2.5381406499	-2.1562346639	 0.123906
H	 0.2808766084	 0.7801465871	-5.6307754464	 0.14966
H	-0.7931207241	 1.9420612527	-4.8458857179	 0.151223
H	 0.9488896907	 2.2462641855	-4.9000134108	 0.146441
