18
gdb 10710	2.48618	1.98239	1.4051	1.6875	67.93	-0.2457	-0.0235	0.2222	968.2949	0.150722	-384.946701	-384.937614	-384.936669	-384.980694	32.308	
C	 0.0617081293	 0.5691552184	 1.0828417479	-0.389286
C	 0.4095502843	-0.7049451543	 0.3036570262	-0.254149
C	 0.5939511438	-0.4494641469	-1.1778680015	 0.309196
C	 0.0548289874	-1.4008042834	-2.1755635737	-0.228013
O	-0.5978686899	-0.163114033	-1.9313102996	-0.264017
C	 1.8143248089	 0.3597864224	-1.5749251503	 0.330074
C	 1.7300183838	 1.1791500369	-2.8460346797	-0.48033
O	 2.7983149836	 0.3498891396	-0.8690312543	-0.307602
H	 0.8726444203	 1.3007222136	 1.0226991975	 0.133151
H	-0.8494827278	 1.0288397579	 0.6879057261	 0.127437
H	-0.1041093162	 0.3414516582	 2.1395806787	 0.116356
H	 1.337753623	-1.1384925755	 0.6878259579	 0.126117
H	-0.3837311977	-1.4488637528	 0.4303783803	 0.099712
H	 0.5234018476	-1.5045928432	-3.1531528785	 0.118891
H	-0.4596938067	-2.2891833623	-1.8118746305	 0.125754
H	 0.9983012975	 1.9825544648	-2.7088812532	 0.156582
H	 2.7106023777	 1.6039080795	-3.0626548829	 0.13952
H	 1.3779235512	 0.5872710201	-3.6954348104	 0.140608
