11
gdb 132406	2.0678	1.96853	1.00847	4.0264	54.61	-0.2955	-0.0333	0.2622	1021.7802	0.067923	-530.057972	-530.05151	-530.050566	-530.089133	24.286	
O	 0.1102916382	 1.2697809234	-0.0459828998	-0.37017
C	 0.0873367094	-0.0579621876	-0.0322693304	 0.465876
N	 0.005258215	-0.6519551565	-1.22070139	-0.349204
C	-0.0124988104	-1.9683368638	-1.1258188832	 0.357755
F	-0.0926012218	-2.6162314768	-2.2618747203	-0.034756
N	 0.0391337756	-2.7212742177	-0.0429534798	-0.349204
C	 0.1191903992	-2.0007993174	 1.0734886087	 0.465876
O	 0.175030115	-2.6896311255	 2.2075121808	-0.37017
N	 0.1478248383	-0.6682360134	 1.1538643187	-0.445538
H	 0.1708987775	 1.5625231143	 0.8742721074	 0.314768
H	 0.2298788839	-2.046471379	 2.9283295479	 0.314768
