12
gdb 1835	6.37633	2.13522	1.63204	2.3925	50.9	-0.249	-0.0394	0.2096	694.6093	0.090607	-360.575745	-360.569559	-360.568615	-360.606346	22.122	
O	-0.0259593927	 0.0195835279	 0.0044968898	-0.288042
C	-0.013501411	 1.2197118306	 0.0111361804	 0.395736
C	-1.2741329959	 2.1033146293	 0.0322931614	-0.269708
N	-0.7347085368	 3.4444105254	 0.0314037797	-0.314274
C	 0.6332168517	 3.5569778442	 0.0140180106	 0.4132
O	 1.2529735083	 4.5950557795	 0.0104967747	-0.365927
C	 1.2005007575	 2.1372872283	-0.0011382824	-0.4543
H	-1.8935369291	 1.88303704	-0.8469421217	 0.143952
H	-1.8696165876	 1.8745801138	 0.9257896737	 0.143899
H	-1.3032220221	 4.2765394553	 0.043463128	 0.25924
H	 1.8408185234	 1.960612449	 0.8684661773	 0.168078
H	 1.8164871643	 1.9694727367	-0.8898627015	 0.168145
