20
gdb 23265	2.47706	1.4784	1.05915	0.7458	81.46	-0.2403	0.0113	0.2516	1178.4601	0.171327	-403.117277	-403.108733	-403.107789	-403.150238	33.476	
C	 0.100583252	 1.6201668622	 0.005586493	-0.389613
C	 0.0987147522	 0.0905643326	 0.0333155276	-0.069489
C	 0.7307820405	-0.596863976	-1.1741424335	-0.033341
C	 2.2356361471	-0.5692468632	-1.2850969356	-0.291031
C	 1.550731238	-1.7803317194	-0.7014410782	-0.046535
C	 1.4800852697	-1.8465256611	 0.8169353288	-0.313003
C	 0.8437707617	-0.528468712	 1.2091891864	 0.369917
N	 0.9010271663	 0.0653452426	 2.3324112536	-0.225819
O	 1.6159040629	-0.6881821271	 3.2823720931	-0.393885
H	 1.1188007156	 2.0058723961	-0.1018760096	 0.117382
H	-0.4950208944	 1.9910829229	-0.8345048849	 0.105842
H	-0.3147803374	 2.0233770172	 0.932279993	 0.131106
H	-0.9460441782	-0.2519282935	 0.0957092548	 0.091493
H	 0.1498966997	-0.6504003634	-2.0880987049	 0.081443
H	 2.6643694464	-0.6624446894	-2.2766636705	 0.110847
H	 2.8002074944	 0.076852083	-0.6181046928	 0.116638
H	 1.5692549072	-2.7079550079	-1.2614867509	 0.083193
H	 0.8458929378	-2.6796577307	 1.1480437542	 0.12045
H	 2.4485110313	-1.974919398	 1.3094958395	 0.129826
H	 1.6106239473	-0.1037637849	 4.0477362371	 0.304579
