20
gdb 91412	2.68092	1.71088	1.26489	3.6982	79.57	-0.2334	0.0344	0.2678	1052.7919	0.173841	-403.184659	-403.17677	-403.175825	-403.216937	30.721	
C	-0.0533654811	 1.4225088949	-0.0292151003	-0.342351
N	 0.012410045	-0.0240177593	 0.0041003007	-0.080327
C	-1.2464766457	-0.7596659723	 0.0499199958	-0.156507
C	-0.9974942019	-2.2665319343	 0.0834523214	-0.033405
C	 0.0931960885	-2.5850186941	 1.1418807678	-0.229943
C	 1.1151285193	-2.1828262296	 0.0387325539	-0.114124
C	 0.0501121266	-2.6398717724	-1.0002911516	-0.230023
C	 1.229999217	-0.6648704035	-0.0018190715	 0.404589
O	 2.2967013014	-0.0784054904	-0.036219506	-0.397872
H	 0.9664430831	 1.8048680425	-0.0653556053	 0.166806
H	-0.6052751577	 1.7701399648	-0.9122340612	 0.116922
H	-0.5581297826	 1.8141310428	 0.8636776266	 0.11695
H	-1.8180857789	-0.4507118718	 0.9385949547	 0.103774
H	-1.8556243315	-0.4960573896	-0.8283140405	 0.103815
H	-1.9453860717	-2.8078958257	 0.1164240878	 0.070109
H	 0.0922564862	-2.0165732676	 2.0758629021	 0.103421
H	 0.1444403101	-3.654117137	 1.3622609764	 0.104167
H	 2.1131422793	-2.617231196	 0.0298391336	 0.086392
H	 0.0935394805	-3.7189246439	-1.1674229691	 0.104159
H	 0.011021954	-2.1200109973	-1.9613520753	 0.103446
