19
gdb 10171	2.48153	1.43804	0.93937	1.3572	71.41	-0.2424	0.0271	0.2696	1264.1303	0.162813	-402.198001	-402.187879	-402.186934	-402.234221	34.331	
C	-0.2160128104	 1.4968631297	-0.0260800238	-0.394947
C	-0.0741718743	-0.0135822676	-0.0186841226	-0.029769
O	-1.3954983363	-0.5735003333	-0.0525034173	-0.272386
C	-1.5009029233	-1.92522393	-0.0427796118	 0.373608
C	-2.9748351787	-2.3080498765	-0.1088820099	-0.141561
O	-3.8295515808	-1.3558095035	 0.4791589896	-0.418579
N	-0.4690368974	-2.6539365946	-0.0321100627	-0.296149
C	-0.5588032676	-4.0990195567	-0.0450028608	-0.327865
H	 0.7738981495	 1.9622057912	-0.0053418743	 0.123586
H	-0.7363228372	 1.8374169847	-0.9260757468	 0.126686
H	-0.7758518815	 1.8428605297	 0.8477483839	 0.127733
H	 0.488538849	-0.3797580708	-0.8835652044	 0.118162
H	 0.4413295898	-0.3754178444	 0.8767293346	 0.119854
H	-3.2244722344	-2.4782075709	-1.1712310331	 0.109597
H	-3.1348612005	-3.2570128682	 0.4096277603	 0.125969
H	-3.4389185885	-0.4929016692	 0.2996542904	 0.293472
H	 0.1982515369	-4.5086392778	 0.6317547453	 0.128403
H	-1.5331345857	-4.5143584949	 0.2471344979	 0.107151
H	-0.3237851085	-4.4768693369	-1.0481454843	 0.127034
