17
gdb 97850	3.63175	0.73837	0.66006	2.926	74.66	-0.2506	0.0182	0.2688	1680.6102	0.133594	-458.888985	-458.87904	-458.878096	-458.925962	33.723	
O	 0.128985957	 1.4216628106	 0.4260176969	-0.402175
C	 0.0883843588	 0.0599891562	 0.0220425254	-0.195634
C	-1.2595478514	-0.5024589757	-0.0141323986	 0.055961
C	-2.3837490618	-0.9329239588	-0.0681363442	 0.133661
C	-3.7436892176	-1.4351745943	-0.1237169841	-0.130631
O	-4.2904744373	-1.5146164836	-1.4686176136	-0.272548
C	-4.2590328429	-2.9575424623	-1.4570803641	-0.104186
C	-3.9286438379	-2.9742768335	 0.0510515612	 0.076849
O	-2.7880493068	-3.6588114022	 0.4822430854	-0.413399
H	-0.4934604762	 1.9040041193	-0.1282159994	 0.288314
H	 0.5635887414	-0.0819261718	-0.9619617019	 0.121135
H	 0.7008645055	-0.4857167386	 0.7485056468	 0.143689
H	-4.3923190235	-0.8247948807	 0.5164274748	 0.108065
H	-5.2132069534	-3.3914321816	-1.7757418937	 0.101957
H	-3.4410151881	-3.3597586263	-2.0685932121	 0.109799
H	-4.8015901516	-3.1985098172	 0.6750921538	 0.086399
H	-3.0436743443	-4.5448100595	 0.7546849974	 0.292744
