17
gdb 28877	2.38161	1.81022	1.0362	1.9843	80.02	-0.197	-0.0026	0.1945	1113.2393	0.13793	-418.087679	-418.079502	-418.078558	-418.119911	31.988	
C	-0.0504328487	 1.5258141408	 0.0410928606	-0.51426
C	-0.0070638021	 0.0218487618	 0.0096034963	 0.259116
C	 0.0714614072	-0.6504889332	-1.2122777718	 0.125835
N	 0.1628199477	 0.0072577751	-2.4402421798	-0.598232
C	 0.1174178186	-2.0579412791	-1.166163599	 0.392293
O	 0.1909756927	-2.707838175	-2.3602081837	-0.439277
N	 0.0922929612	-2.7800102501	-0.0657110833	-0.373329
C	 0.0162930984	-2.1251684733	 1.1041411274	-0.031688
C	-0.03470836	-0.7452462291	 1.1819601415	-0.206459
H	 0.8003491395	 1.9577386695	-0.4992874752	 0.141089
H	-0.9612021069	 1.91609238	-0.4337953888	 0.125541
H	-0.030751949	 1.9004191656	 1.066799752	 0.129646
H	-0.3421479599	 0.8801459284	-2.4941094131	 0.245278
H	-0.0386625186	-0.5936120537	-3.2268975902	 0.261197
H	 0.2010186752	-3.6500748229	-2.1450151324	 0.295968
H	-0.0037764434	-2.7402775452	 1.9985818835	 0.101709
H	-0.0944347119	-0.2545442296	 2.1475371662	 0.085576
