18
gdb 112301	2.81008	1.36929	1.02594	4.9921	72.24	-0.2505	0.0014	0.2519	1182.6539	0.148539	-439.10564	-439.097519	-439.096575	-439.138608	30.6	
C	 0.0940502882	 1.5049707957	 0.0954818061	-0.387926
C	 0.0807398876	-0.0236280929	 0.0183851055	-0.187828
C	 0.5975359566	-0.5623971986	-1.3096912068	 0.129613
O	 1.9624140067	-0.1195271095	-1.5225481224	-0.245905
C	 2.7797840652	-1.1232898324	-1.9496700767	 0.486408
O	 3.8915452834	-0.9313502983	-2.3466824557	-0.345901
C	 2.0300448455	-2.422298369	-1.8444142591	-0.206461
N	 1.5874590708	-2.6597013885	-0.4410533994	-0.326451
C	 0.6569793654	-2.0795122987	-1.4189584655	-0.078687
H	 1.108388057	 1.8901658143	-0.0350999747	 0.143824
H	-0.536863056	 1.9490669543	-0.6827379496	 0.112206
H	-0.2801637091	 1.8482350719	 1.0641910882	 0.115431
H	 0.6881888076	-0.4599649293	 0.8169697247	 0.12985
H	-0.9420530473	-0.4000804679	 0.1510096332	 0.095761
H	 0.0026058906	-0.1606175304	-2.1410711574	 0.09209
H	 2.304710196	-3.2501486166	-2.4843821155	 0.122365
H	 1.3909175669	-3.6533984051	-0.3387756779	 0.244255
H	-0.2165829852	-2.6323589789	-1.7446424868	 0.107358
