21
gdb 94650	3.70956	0.72653	0.65218	3.7646	80.4	-0.246	-0.0171	0.2289	1730.0146	0.180486	-424.221178	-424.211106	-424.210162	-424.258897	34.924	
C	-0.2453707385	 1.5473729041	-0.2062323074	-0.411516
C	 0.0467874384	 0.0548956021	-0.126007405	-0.054688
C	 1.428281685	-0.4254653624	-0.6234247143	-0.075066
O	 1.7600995835	-0.9797249042	 0.6665629924	-0.294574
C	 0.4877603713	-0.5768414842	 1.2279588156	 0.142566
C	 0.665574336	 0.3000134407	 2.4588480063	-0.219899
C	 1.4070405807	-0.4586706357	 3.5750102877	-0.27148
C	 1.7601981144	 0.4438155001	 4.7316636404	 0.155728
O	 1.4437433714	 0.2604615647	 5.8788369784	-0.23915
H	 0.5768004563	 2.1478839493	 0.1949187563	 0.122454
H	-0.3931274942	 1.8489097421	-1.2487401695	 0.120972
H	-1.1551584239	 1.8095953373	 0.3437742827	 0.122163
H	-0.7776781237	-0.5033184381	-0.5770808737	 0.083378
H	 1.4183641935	-1.1922997538	-1.407369602	 0.102626
H	 2.1242907377	 0.3715470382	-0.9174095627	 0.098839
H	-0.1041634502	-1.4628147762	 1.5005497061	 0.074701
H	 1.2328643569	 1.1988875948	 2.1915956503	 0.103613
H	-0.3184941207	 0.6291355102	 2.8153723655	 0.110407
H	 0.8204119419	-1.3018761648	 3.9512255649	 0.118239
H	 2.342999195	-0.8475949318	 3.1506054936	 0.142937
H	 2.3597500595	 1.3401483177	 4.4415972844	 0.067752
