14
gdb 54077	2.35157	1.28037	0.85759	6.5156	66.92	-0.2667	-0.0123	0.2544	1256.4885	0.097687	-473.830002	-473.820663	-473.819719	-473.865032	32.745	
N	 0.2261038101	 1.0260048692	 0.6133334797	-0.536904
C	 0.1077757234	-0.1206729139	-0.0906742077	 0.435727
O	 0.9589473052	-0.5870809927	-0.8166683541	-0.347158
C	-1.2766074502	-0.8364930847	 0.0007059097	-0.213933
O	-1.0535608121	-2.2416583925	 0.0745083447	-0.178229
C	-0.7648194568	-2.8784588092	-1.0927864015	 0.197488
O	-0.4670248782	-4.0308397061	-1.1179425665	-0.268711
C	-2.1154491531	-0.4287808515	 1.1179024301	 0.291086
C	-2.7915287554	-0.0514722769	 2.0367295961	-0.383195
H	 1.1099922435	 1.508778401	 0.5922836388	 0.27341
H	-0.465305604	 1.2864669984	 1.2967405478	 0.27504
H	-1.7891518833	-0.5900180884	-0.9421179072	 0.14427
H	-0.8686399694	-2.2272127706	-1.9770243155	 0.095306
H	-3.4042898898	 0.2590125179	 2.8478215256	 0.215803
