17
gdb 71093	2.69033	1.56132	1.31679	1.1834	80.53	-0.2273	0.0269	0.2542	1030.6383	0.134247	-384.600434	-384.592474	-384.59153	-384.632588	31.417	
C	 0.1174545077	 1.5664536077	 0.0776498461	-0.502717
C	-0.0523790438	 0.0876939832	-0.045153111	 0.361005
C	 0.3539435627	-0.7553034299	-1.2851756273	-0.271961
C	-0.5799032156	-1.8243740377	-0.7245007652	-0.173126
C	-0.4582883257	-1.6754595252	 0.7913359321	 0.036749
O	 0.5164559715	-0.6801719958	 1.0633208444	-0.324911
C	-1.3993801955	-0.7700273667	 0.0469747914	 0.228264
C	-2.7719676799	-0.466387566	 0.1222073525	-0.00676
C	-3.9420115954	-0.1845893803	 0.1816992025	-0.370171
H	 1.1827840327	 1.8216322947	 0.0790480641	 0.13585
H	-0.3604876863	 2.0774756043	-0.7629798493	 0.130518
H	-0.32626936	 1.9299012734	 1.0083738981	 0.139853
H	-0.0369257746	-0.3280818927	-2.2118012023	 0.110224
H	 1.4202601281	-0.9833879611	-1.3802410746	 0.102605
H	-0.9637638964	-2.7172361358	-1.2000324083	 0.106169
H	-0.6475388824	-2.4506461367	 1.5214154143	 0.120686
H	-4.9731981469	 0.0606673547	 0.2387269026	 0.177723
