19
gdb 120587	3.23412	0.88678	0.86389	4.4516	78.21	-0.2433	0.0264	0.2697	1447.8235	0.157853	-419.190966	-419.181081	-419.180137	-419.226131	35.77	
C	 0.1359893511	 1.4137323923	-0.1153773628	-0.390054
C	 0.4516660079	-0.0699633797	-0.0900435812	-0.054933
O	 0.2577757888	-0.5917714935	-1.4109495145	-0.253422
C	 0.4734548426	-1.9552952323	-1.4946649895	 0.102521
C	 0.6388031686	-2.5432068866	-2.8535480144	-0.362439
C	 1.8681250845	-2.4222441195	-1.9347275003	 0.111695
N	 2.8610961183	-1.4012420225	-2.1389353411	-0.571685
C	 2.3666597955	-3.6426393823	-1.3480383925	 0.278975
N	 2.738821901	-4.636589967	-0.88693704	-0.345968
H	 0.8066699531	 1.9430373991	-0.7983636166	 0.127809
H	-0.8931396087	 1.583001158	-0.4438585157	 0.132742
H	 0.2570096678	 1.840038565	 0.8845414816	 0.125946
H	 1.4859436105	-0.2535211281	 0.2313271985	 0.120185
H	-0.2134617441	-0.6002475144	 0.6076684281	 0.10525
H	-0.0237325303	-2.5500698203	-0.729523665	 0.115734
H	 0.2177235903	-3.5232332712	-3.0458530632	 0.139444
H	 0.6263322762	-1.8532728284	-3.6901242934	 0.131685
H	 3.3711738332	-1.5566584365	-3.0025801107	 0.241626
H	 2.3915631236	-0.5036326124	-2.2092178772	 0.24489
