20
gdb 106727	2.50502	1.51086	1.11407	2.1133	79.52	-0.2293	0.0053	0.2346	1147.3315	0.171347	-403.136353	-403.1276	-403.126656	-403.169694	33.893	
C	 0.069835202	 1.5204609304	-0.1015976875	-0.47971
C	-0.0103082201	 0.0330077557	 0.1297861143	 0.253923
N	 1.2625942212	-0.7332050255	 0.0455666195	-0.417993
C	 0.5079624366	-0.7330417656	 1.3161088914	 0.254722
C	 1.2863572859	-0.1555172591	 2.4728500621	-0.13434
O	 2.365431833	-1.0057814008	 2.8326123662	-0.423127
C	-0.440385957	-1.9098962603	 1.562442144	-0.335733
C	-1.4363222814	-1.8106578523	 0.4288478898	-0.094355
C	-1.2176900185	-0.7320868011	-0.3270555056	-0.133118
H	 1.0037426654	 1.9297365732	 0.2884607	 0.131909
H	 0.0353303783	 1.7415174927	-1.174622341	 0.120816
H	-0.7686785314	 2.0398924274	 0.3744388719	 0.120186
H	 1.1060425833	-1.5996280912	-0.4662276717	 0.222544
H	 1.6450595727	 0.8522112368	 2.2204558156	 0.088355
H	 0.6511444423	-0.0727686464	 3.3613127622	 0.102529
H	 2.8881543468	-1.112388114	 2.0285224049	 0.288841
H	 0.0880124153	-2.8714658118	 1.5838879053	 0.119555
H	-0.9338268161	-1.813973533	 2.5391932928	 0.115293
H	-2.2081982572	-2.5529143802	 0.2602401529	 0.100277
H	-1.8021394613	-0.4287348548	-1.1886983769	 0.099426
