18
gdb 9902	4.91131	0.90577	0.81828	2.027	78.36	-0.2436	0.0358	0.2795	1446.7985	0.151258	-347.764641	-347.755334	-347.75439	-347.799685	32.709	
C	-0.3164193317	 1.5024413657	-0.0800811769	-0.365258
C	 0.2738773231	 0.0902734143	 0.0870306682	-0.319954
C	 0.8911154247	-0.4200565747	-1.1322936333	 0.131011
C	 1.3950441839	-0.8366134588	-2.1446107546	 0.004389
C	 1.9903467368	-1.2981367317	-3.3776442691	 0.227087
C	 1.9666835726	-0.3163247776	-4.5312948477	-0.465186
C	 3.0212241154	-2.356335988	-3.3277777931	-0.210562
O	 1.6937452631	-2.6643870053	-3.7387586526	-0.260268
H	 0.4601329934	 2.2170197995	-0.3660069325	 0.127872
H	-1.0864085924	 1.5121651562	-0.8561280189	 0.130166
H	-0.766873393	 1.8397146363	 0.8580061787	 0.116165
H	 1.014996293	 0.0949511401	 0.8967464879	 0.130151
H	-0.5155279754	-0.6024309904	 0.4058326642	 0.134863
H	 2.5065168569	 0.5984823788	-4.2686302826	 0.128908
H	 2.4287357794	-0.7629249571	-5.415166753	 0.126275
H	 0.9358720224	-0.043723678	-4.7756727493	 0.135264
H	 3.7791552362	-2.3922356416	-4.1104050364	 0.111496
H	 3.3221247015	-2.7632101978	-2.364055229	 0.117582
