17
gdb 6171	3.61074	1.42039	1.29233	3.2114	66.32	-0.2423	0.0254	0.2678	1001.8499	0.140564	-401.025593	-401.016793	-401.015849	-401.058526	32.878	
C	-0.2728105779	 1.5198462499	-0.0003461985	-0.472947
C	 0.0239598451	 0.0408111154	-0.0248766341	 0.412415
O	-1.01011239	-0.7562701689	-0.5379102452	-0.454738
C	 1.3756517826	-0.4819200319	-0.3405301189	-0.315218
C	 0.8553819307	-0.6370149872	 1.0837052965	-0.193227
C	 1.5121375994	 0.1543528719	 2.1646647521	 0.411712
N	 1.3628844178	-0.3614753014	 3.424768904	-0.535252
O	 2.1156186663	 1.1976305478	 1.9680897143	-0.381541
H	 0.5661454724	 2.0765367221	 0.4178347814	 0.166318
H	-0.4767286467	 1.8712863253	-1.0168013645	 0.122794
H	-1.1584834962	 1.7274162734	 0.614131067	 0.102222
H	-1.8110343036	-0.5520246487	-0.0420734105	 0.279936
H	 1.4389152846	-1.3786103001	-0.9453890994	 0.12226
H	 2.176125908	 0.2396893828	-0.4575536349	 0.141145
H	 0.4849394553	-1.6211618734	 1.3512860447	 0.079522
H	 1.0194221897	-1.2937120241	 3.5761794866	 0.255974
H	 1.8792846426	 0.0811099671	 4.1677514592	 0.258626
