19
gdb 90862	3.64514	1.43348	1.20735	1.0003	81.22	-0.2231	-0.0071	0.216	1053.5213	0.160906	-385.820832	-385.813601	-385.812656	-385.852	30.19	
O	 0.0541940685	 1.4627617104	 0.0219755864	-0.436896
C	 0.0598157503	 0.0478073333	-0.0097909451	 0.096626
C	-1.4262608921	-0.4405870004	-0.012306808	-0.227523
C	-1.4670671021	-1.9735165174	-0.0958274583	-0.021278
C	-1.298824282	-2.9600002382	-1.2863800305	-0.067215
C	-0.4084779017	-2.5348053898	-2.4937984619	-0.279905
C	 0.4489509031	-1.8596539986	-1.4338561752	 0.149951
C	 0.6023122666	-0.5413700087	-1.2915272982	-0.185798
C	-0.1683389733	-2.6932049464	-0.3137788551	-0.15784
H	 0.9685320293	 1.7620751859	 0.0428477715	 0.282431
H	 0.55253912	-0.3662384199	 0.8820666697	 0.076801
H	-1.9210930074	-0.1107279624	 0.9080915536	 0.101734
H	-1.9380953598	 0.0543500029	-0.8437880088	 0.110215
H	-2.1143134567	-2.4319430699	 0.649698696	 0.086052
H	-1.9425772597	-3.8340579313	-1.3124842866	 0.087079
H	 0.0197804025	-3.4408124319	-2.9377451055	 0.10656
H	-0.8269381491	-1.899734799	-3.2811900254	 0.09731
H	 0.6426460166	 0.1233278383	-2.1527982349	 0.093441
H	 0.331559507	-3.3544072668	 0.3825176066	 0.088256
