20
gdb 115930	3.02798	1.37293	1.17396	0.8935	74.42	-0.2013	0.076	0.2773	1128.2175	0.172498	-440.242842	-440.234499	-440.233555	-440.275841	32.18	
C	-0.5735980916	 1.1485166889	-0.3305804075	-0.2419
O	-0.3202957593	-0.2372104758	-0.4781373475	-0.235648
C	 0.9180079539	-0.5339654379	-1.0740555114	 0.201463
C	 1.1126372288	-2.0691825668	-0.9408803641	-0.241027
N	 1.5673045635	-2.7544018097	-2.1480048778	-0.289047
C	 0.8705487616	-2.3273732258	-3.3455920299	-0.017948
C	-0.5698540024	-1.8598449628	-3.2694568787	-0.349019
C	 0.5495563201	-0.8643602284	-3.4521457981	 0.102414
O	 1.0043406322	-0.0454346843	-2.3999892581	-0.260643
H	 0.190204496	 1.6273673748	 0.3010867796	 0.104288
H	-0.5968436943	 1.6593041712	-1.2995550241	 0.12663
H	-1.5468549515	 1.244799264	 0.1555253675	 0.125044
H	 1.713469809	 0.0190644284	-0.5523461532	 0.071346
H	 1.8333515457	-2.2711769795	-0.1446001246	 0.109726
H	 0.1590443975	-2.4953940358	-0.6174151984	 0.131461
H	 2.5557761196	-2.5587322198	-2.2835511122	 0.221516
H	 1.1746703462	-2.8800298104	-4.228970307	 0.090334
H	-1.1944554409	-2.0649717955	-4.1322297865	 0.112352
H	-1.0994142849	-1.8682099547	-2.3261702025	 0.142344
H	 0.6403733007	-0.3214641502	-4.3862013856	 0.096314
