17
gdb 43024	2.7539	1.89387	1.39133	2.4288	72.89	-0.2271	-0.0256	0.2015	934.9457	0.138842	-417.932442	-417.925772	-417.924827	-417.963334	27.383	
O	-0.1016041309	 0.0063719617	-0.1458068041	-0.314697
C	-0.0880361986	 1.1986481575	-0.0207235875	 0.370706
C	-1.2904507136	 2.181737378	 0.0702281805	-0.104759
C	-0.8633288326	 3.3621301934	 1.0222958095	-0.320327
C	 0.1989298659	 3.4869324258	-0.0885295254	 0.315783
C	 1.4142344209	 4.1806921152	-0.712976989	-0.296861
N	 2.0328817828	 2.8169495118	-0.9669628569	-0.357861
C	 1.0670830717	 2.2287067949	 0.0399856056	-0.094821
N	-0.8854147389	 3.0915644852	-1.0478987705	-0.321324
H	-2.2906597823	 1.7521743174	 0.0689237421	 0.097957
H	-1.6316472254	 4.1366868067	 1.0275690217	 0.124908
H	-0.513871739	 3.1256263031	 2.0282705979	 0.113212
H	 1.2189640842	 4.7926603057	-1.5981482343	 0.117979
H	 2.0371673081	 4.7412546645	-0.0105220045	 0.12535
H	 1.8287270929	 2.5006745361	-1.9109385169	 0.226389
H	 1.6042987391	 2.0924288143	 0.9868048802	 0.107125
H	-0.5550548043	 2.5959859087	-1.8804774283	 0.211241
