14
gdb 42220	3.72852	1.14972	0.99724	2.3682	67.82	-0.2652	-0.0991	0.1661	1139.9707	0.099896	-436.619879	-436.612303	-436.611358	-436.652988	27.45	
O	 0.5217368824	 0.4186774331	-0.9062347182	-0.272467
C	 0.0970222969	 1.1179763538	-0.0190117264	 0.274162
C	 0.9103155828	 1.3480482302	 1.1978806168	 0.222555
N	 1.5300333154	 1.5356488791	 2.1561112354	-0.294452
C	-1.2322688203	 1.8131342971	-0.0004889959	-0.098557
C	-2.265348162	 1.6388379849	-1.1428521269	 0.037765
C	-2.553785448	 0.1822565783	-0.7038668038	-0.232552
C	-2.5263283217	 1.0923705405	 0.5432043264	 0.043533
O	-3.3144486224	 2.0925582575	-0.1928083704	-0.300619
H	-1.1496689262	 2.8309962207	 0.3875277833	 0.126513
H	-2.2526127003	 2.0835705309	-2.1364275614	 0.117695
H	-3.5479253573	-0.1772693033	-0.9677362119	 0.123365
H	-1.7715758042	-0.563905141	-0.8392122209	 0.132998
H	-2.7917732651	 0.8917345482	 1.5804794039	 0.120062
