24
gdb 58124	2.72062	1.06987	0.9562	3.7031	86.09	-0.2449	0.0319	0.2767	1383.7104	0.215082	-405.588312	-405.577249	-405.576304	-405.623552	41.656	
C	-0.04466914	 1.5607889911	-0.0006361979	-0.405326
C	 0.0584748589	 0.0247127774	 0.0003091954	 0.004488
C	 0.5884513251	-0.4553651199	-1.3587347514	-0.409287
C	 0.8555415484	-0.5425912982	 1.21705627	 0.287204
C	 0.9495564085	-2.0798228757	 1.1470680524	-0.424466
C	 2.268567461	 0.0597592277	 1.3294063189	-0.418297
N	 0.0695633776	-0.1778718523	 2.4198658786	-0.297362
C	 0.3878973956	-0.4597391074	 3.7080435337	 0.159359
O	 1.399824729	-1.0070737977	 4.1004010344	-0.33714
H	 0.9129199039	 2.022006821	-0.2616245639	 0.125612
H	-0.7781109009	 1.8886401331	-0.7438964495	 0.115142
H	-0.3485949718	 1.9659518579	 0.9691759026	 0.108837
H	-0.9604159443	-0.3793769495	 0.1058335405	 0.069682
H	 1.6244377671	-0.1401336904	-1.5210740274	 0.122022
H	 0.5435942664	-1.5415218904	-1.4629863077	 0.121655
H	-0.0126534126	-0.0216220351	-2.1641072556	 0.114327
H	 1.6144373789	-2.3988098134	 0.3406095122	 0.114759
H	 1.3481894041	-2.4627282452	 2.0880716601	 0.152939
H	-0.0371295122	-2.5246380123	 0.9783610288	 0.10306
H	 2.2302004761	 1.1448811332	 1.4521465667	 0.112875
H	 2.778687078	-0.3620485639	 2.1960026113	 0.156617
H	 2.8548446582	-0.1675627429	 0.4345444335	 0.110255
H	-0.8449854208	 0.217595418	 2.2684990429	 0.240709
H	-0.4082935843	-0.116351505	 4.4013346115	 0.072334
