25
gdb 122132	2.08673	0.70619	0.55897	2.1323	86.37	-0.2587	0.0784	0.3371	2044.4238	0.226584	-426.621818	-426.609776	-426.608831	-426.660369	42.167	
C	 0.8020543114	 1.8009196131	 0.3832677811	-0.387403
C	 0.3774825812	 0.3326959746	 0.2615581587	-0.187475
C	 0.8400612521	-0.5759419731	 1.4173852735	 0.04641
C	 0.0552218841	-0.2787508071	 2.6976590324	-0.090607
O	 0.6515851449	-0.998701627	 3.7696738308	-0.422945
C	 0.7328827425	-2.072928345	 1.0647725238	-0.200523
C	 1.8011685141	-2.571113119	 0.0862393191	-0.17648
C	 1.6725201648	-4.0588700932	-0.2127942102	-0.073836
O	 2.6996767784	-4.4153237893	-1.1274697794	-0.422892
H	 1.8924149359	 1.8899230608	 0.4419535127	 0.117747
H	 0.4689553595	 2.3764931685	-0.4862194038	 0.111481
H	 0.3839043381	 2.2832487861	 1.2721775289	 0.115841
H	-0.7165411935	 0.2691246008	 0.1739840417	 0.090077
H	 0.7733230473	-0.0644759823	-0.6794141177	 0.101185
H	 1.8942521131	-0.353644394	 1.6374786508	 0.077327
H	 0.0629553854	 0.8008988007	 2.9072494487	 0.083952
H	-0.997291516	-0.5784059669	 2.555959565	 0.079984
H	 0.1248268954	-0.8521297712	 4.5602442188	 0.285598
H	 0.8059109568	-2.6449378981	 1.995879818	 0.112936
H	-0.2683306683	-2.2710122238	 0.6537086472	 0.081624
H	 1.7532643098	-2.0307332861	-0.8663593242	 0.104685
H	 2.8006408261	-2.3868545868	 0.4992041549	 0.105743
H	 1.75538924	-4.6343978674	 0.7238183729	 0.084151
H	 0.6751384182	-4.2685151273	-0.6344161069	 0.0801
H	 2.6285380587	-5.357346987	-1.3061361468	 0.283319
