18
gdb 38571	2.83894	2.17819	2.02151	2.3261	72.28	-0.2189	0.0741	0.293	805.7311	0.152591	-401.923614	-401.917982	-401.917038	-401.953198	24.99	
C	 0.0102295851	 1.5825750555	-0.0882860269	-0.262346
C	 1.4930005407	 1.9074404111	 0.0314389217	-0.034518
C	 2.21951367	 0.7220723174	 0.5959829177	-0.059064
C	 1.2294581021	-0.4198077459	 0.7886030685	 0.091061
O	 1.476638017	-1.4894706745	-0.1635983667	-0.305583
C	 0.7524143668	-0.7009178128	-1.1505451378	 0.082602
C	 1.7538586446	 0.2417318539	-1.8103718313	-0.166455
N	 2.3954171304	 1.1198646806	-0.8120999774	-0.113701
C	-0.0019202346	 0.0568468776	-0.0218959021	-0.077146
H	-0.545364728	 2.0201076995	 0.7488400497	 0.106895
H	-0.4357488719	 1.9743603468	-1.010737744	 0.106865
H	 1.8074000368	 2.9303022779	 0.222164629	 0.087602
H	 3.1006299331	 0.8005744937	 1.2251749922	 0.090279
H	 1.1454567903	-0.7825143268	 1.8155630725	 0.075878
H	 0.1995415657	-1.328007847	-1.8563927046	 0.073981
H	 2.5364454573	-0.3466946399	-2.3002423242	 0.118307
H	 1.2767233669	 0.8677337233	-2.57394653	 0.102346
H	-0.9507981623	-0.4033564205	 0.2505168835	 0.082997
