14
gdb 44316	3.33527	1.97749	1.46014	2.6191	64.86	-0.2245	-0.0273	0.1972	844.11	0.101117	-436.546971	-436.541006	-436.540062	-436.577195	24.488	
O	 0.0346919052	 0.0678838834	-0.1963946407	-0.309409
C	 0.0493467033	 1.2516707725	-0.0227969349	 0.314265
C	-1.1670782689	 2.2532793362	 0.0606074136	-0.275682
N	-0.566477042	 3.6147451719	 0.2903989858	-0.171444
C	 0.6590837041	 3.5589823453	-0.5944017583	-0.064575
C	 1.7124655555	 3.9567041759	 0.4580231684	-0.002606
O	 2.4959060954	 2.6843565103	 0.3127280737	-0.38422
C	 1.1137523791	 2.2838299389	 0.1828730575	 0.336432
C	 0.5642662323	 3.2909515316	 1.2414822591	-0.064576
H	-1.7419261206	 2.2344228584	-0.8695964885	 0.14239
H	-1.8324902211	 1.9784195954	 0.8838718211	 0.14239
H	 0.6448558081	 3.717094487	-1.6723023345	 0.110197
H	 2.2921960979	 4.8636695643	 0.6203779751	 0.116642
H	 0.4390516116	 3.1353289689	 2.3125445827	 0.110197
