17
gdb 45259	3.18182	1.65953	1.35333	3.6701	71.67	-0.2245	-0.0156	0.2089	956.4952	0.138211	-417.976984	-417.970147	-417.969203	-418.008236	27.422	
O	 0.1435962812	 0.1986619499	-1.0502232916	-0.29358
C	 0.067647082	 1.1597009411	-0.3483783942	 0.422903
C	-1.0235424029	 1.8023897993	 0.5187700443	-0.296525
N	-0.1363237735	 2.9862011195	 0.6885506509	-0.10143
C	 0.2365884392	 3.4102301079	 2.0461897523	-0.181866
C	 1.5382720127	 2.694863334	 2.3752304248	-0.032394
N	 1.4225878486	 1.2315698165	 2.2438557677	-0.34159
C	 2.024447944	 2.0159048919	 1.1418535819	-0.048781
C	 1.0288161862	 2.307995012	 0.0349890184	-0.130465
H	-1.9718652766	 2.0171031545	 0.0133375456	 0.122147
H	-1.2120977976	 1.2299410234	 1.4355909462	 0.137043
H	 0.3941097903	 4.4961666654	 2.0764968174	 0.105491
H	-0.5657357012	 3.1686179442	 2.7513936896	 0.114306
H	 2.2263143601	 3.1145143388	 3.1030948624	 0.093375
H	 2.1583380094	 0.7738300596	 2.7753085433	 0.238294
H	 3.0789106234	 1.9020128469	 0.9164623814	 0.097183
H	 1.4903076646	 2.8546803452	-0.7951701103	 0.095889
