16
gdb 34073	3.94598	1.4387	1.42653	4.8574	71.16	-0.2579	0.014	0.2718	941.3198	0.127048	-400.758229	-400.751799	-400.750855	-400.788878	26.469	
N	 0.008961176	-1.0824338087	-0.0352249504	-0.334216
C	-0.0008589999	 0.072192876	-0.0224108896	 0.206419
C	 0.0194822323	 1.521599256	 0.0476887968	 0.251323
C	-0.669331931	 2.1936584672	 1.2688562849	-0.253758
C	-0.4762217425	 3.6157180027	 0.7628441787	-0.123739
C	 0.8360631981	 3.6357787845	-0.0284132601	-0.123727
C	 1.4054926413	 2.2253768088	 0.0178336661	-0.253786
C	-0.4858454157	 3.4789711262	-0.7406707687	 0.093909
O	-0.6640910686	 2.1110147894	-1.0710305116	-0.283345
H	-1.7183632216	 1.8994672222	 1.3465148845	 0.127638
H	-0.1517276664	 1.9747915022	 2.2054211195	 0.121537
H	-0.8653594875	 4.4827998213	 1.2777548663	 0.10304
H	 1.4534683039	 4.5182404489	-0.1204056191	 0.103039
H	 1.9970829639	 2.0076638087	 0.9097900755	 0.121541
H	 1.9701590709	 1.9559002665	-0.8774837994	 0.127636
H	-0.9225506832	 4.168692958	-1.4474620336	 0.116488
