13
gdb 42559	4.30862	1.31043	1.14043	4.5772	66.58	-0.2741	-0.0336	0.2404	1004.8355	0.089736	-415.558459	-415.551731	-415.550786	-415.589874	25.402	
O	 0.0758157536	 0.0738104263	 0.2423591133	-0.289995
C	-0.0234336479	 1.2460533428	 0.0994783433	 0.438942
C	-1.0958452088	 2.2776650801	 0.0512043287	-0.23919
C	-0.399826936	 3.5609193882	 0.5865592708	-0.066905
C	-0.1448658748	 3.1088249939	-0.7984129282	-0.018603
N	 1.0282309339	 2.2540814076	-0.2862982505	-0.212237
C	 1.0132980883	 3.1114842572	 0.9811084797	-0.163028
C	 2.00372954	 4.1812347419	 0.9320257098	 0.306393
N	 2.7671336457	 5.048045812	 0.914957317	-0.310843
H	-2.1726770583	 2.1886148442	 0.0072630502	 0.136142
H	-0.9802683529	 4.400979794	 0.9461787054	 0.133393
H	-0.2437156062	 3.510227494	-1.794278054	 0.14237
H	 1.1440418034	 2.5308230277	 1.9009850044	 0.143561
