16
gdb 45860	2.55823	1.85003	1.2049	3.3283	71.4	-0.2241	-0.018	0.2061	1003.8812	0.125651	-437.908703	-437.901219	-437.900274	-437.94083	28.854	
O	-0.0268924732	 0.1453562396	 0.8786740216	-0.361739
C	-0.018099471	 1.2724720197	 0.428608684	 0.391383
N	-1.1623121292	 1.9020812601	-0.0001776109	-0.358251
C	-1.2099585697	 3.1871777994	-0.55535272	 0.024234
C	-0.1654776504	 4.0136238154	-0.5263975647	-0.118266
C	 1.1140229887	 3.6014543628	 0.1493967866	-0.360285
C	 1.2503503862	 2.0903754283	 0.2291543713	 0.273178
C	 2.511775014	 1.4511353683	 0.6151685273	-0.218007
O	 2.1072794961	 1.4781405974	-0.7545336976	-0.261058
H	-2.0016911635	 1.3442727075	 0.049787925	 0.258596
H	-2.1609377765	 3.4467056097	-1.004386135	 0.119297
H	-0.2460253061	 4.9991550149	-0.9667342033	 0.102612
H	 1.9902061437	 3.9887655173	-0.3806262447	 0.130108
H	 1.1518063948	 4.0245899993	 1.1655673192	 0.124302
H	 3.3624712492	 2.0851198799	 0.8626442283	 0.110884
H	 2.4762135669	 0.4746184704	 1.0903600327	 0.143013
