15
gdb 124082	4.92312	1.06011	0.94648	2.224	65.6	-0.2534	-0.0313	0.2222	1189.0007	0.114235	-453.916434	-453.909125	-453.908181	-453.950023	25.625	
C	 0.158006281	 1.624717333	 0.1716426946	-0.086909
O	 1.5764791721	 1.3595562426	 0.1932411032	-0.268441
C	 1.3663430455	-0.0628057716	 0.1870509968	-0.070224
C	-0.1653868899	 0.124187663	 0.0021951392	-0.164544
C	-1.0591647328	-0.5342570915	 0.9892423675	 0.371445
N	-1.6603153246	 0.1068565626	 1.95777598	-0.175563
O	-2.3682590591	-0.8986969073	 2.6298974351	-0.151281
C	-2.1045976541	-2.0310253802	 1.9789852141	 0.108035
N	-1.3148303855	-1.8948091063	 0.9638690739	-0.311776
H	-0.195715135	 2.0633636436	 1.1104469647	 0.132137
H	-0.1267319586	 2.2714409714	-0.6649691951	 0.108598
H	 1.8907510021	-0.5592504196	-0.6363938897	 0.113185
H	 1.6558513584	-0.5312964927	 1.1361068412	 0.109981
H	-0.4927431751	-0.1446361559	-1.0043142939	 0.115163
H	-2.5672043143	-2.932907101	 2.3527605384	 0.170196
