20
gdb 16907	3.63615	1.75099	1.3639	1.7962	73.95	-0.2567	0.0833	0.34	967.9527	0.178955	-349.013629	-349.006191	-349.005247	-349.045021	29.457	
C	 0.0688125896	 1.5779420746	 0.0215974321	-0.404201
C	 0.0109434854	 0.0483738585	-0.0209587307	 0.044629
C	 0.6772260832	-0.5204138431	-1.2834489064	-0.196468
C	 0.4544350042	-2.0348258157	-1.4003049279	-0.249022
C	 0.8454445288	-2.7650427327	-0.135697867	 0.072059
O	 2.1096939157	-2.4124122007	 0.4314672807	-0.258224
C	 0.9194052863	-2.050666783	 1.1504215502	 0.033492
C	 0.628077913	-0.5639556086	 1.2533477816	-0.221058
H	 1.1071620747	 1.9298867377	 0.0142906541	 0.115863
H	-0.4381658632	 2.0188346339	-0.8431620126	 0.109759
H	-0.4077454621	 1.9710038241	 0.9263142529	 0.109387
H	-1.0477259895	-0.2507151655	-0.051360734	 0.067113
H	 0.2773056565	-0.0219885844	-2.1736169766	 0.08885
H	 1.7531098234	-0.3109702812	-1.2557088773	 0.110403
H	-0.605105795	-2.2451745469	-1.6013977056	 0.098876
H	 1.0194217669	-2.4448305431	-2.24635032	 0.103952
H	 0.6352120546	-3.8360738849	-0.1221324411	 0.081664
H	 0.7811309873	-2.6276565347	 2.0655003284	 0.086443
H	 1.5726280676	-0.0555046778	 1.4888865038	 0.110837
H	-0.0384591674	-0.3863949564	 2.1054469056	 0.095645
