18
gdb 107372	3.02613	1.26172	1.01364	4.5106	72.62	-0.2352	0.0308	0.266	1182.7484	0.148443	-439.113117	-439.104781	-439.103836	-439.146187	31.853	
O	-0.0457827864	 1.3935643954	 0.1986590388	-0.425035
C	 0.027563088	-0.004259786	-0.0614757831	-0.164025
C	-1.3719491889	-0.5414519053	-0.0266436406	 0.369064
C	-2.0327991775	-1.0095260755	 1.2505278516	-0.323093
C	-1.7260179019	-2.0009662575	 0.1449281954	-0.106973
C	-2.8132228916	-2.3183074639	-0.8664892938	-0.352733
C	-3.1731801121	-0.9616340201	-1.505430333	 0.385919
O	-4.0911126075	-0.7328651851	-2.2593591549	-0.37105
N	-2.2562714981	-0.0472789152	-1.0440107852	-0.349574
H	 0.8155518717	 1.7806385184	 0.0163976246	 0.291922
H	 0.468501451	-0.1975320714	-1.0510821558	 0.096438
H	 0.6383535244	-0.5248880177	 0.6921801521	 0.089161
H	-1.419996935	-1.0672066186	 2.1437460369	 0.118301
H	-3.0635859175	-0.7170723522	 1.4226923222	 0.121183
H	-0.9423785717	-2.7286448988	 0.3210866219	 0.096197
H	-2.4626074456	-2.9991777229	-1.648997375	 0.131349
H	-3.7145493884	-2.7607318475	-0.433328321	 0.135505
H	-2.3933886529	 0.9410671936	-1.189393371	 0.257443
