15
gdb 87034	2.15661	1.67207	1.10338	1.8043	68.14	-0.2618	-0.0064	0.2554	1073.9817	0.112135	-453.982658	-453.974067	-453.973123	-454.015777	32.117	
N	 0.0452360964	 1.1871312786	 0.4361736618	-0.560996
C	-0.0062804298	-0.0386198426	-0.1258362345	 0.439301
O	 0.9669434435	-0.5703803388	-0.6553030468	-0.413566
C	-1.3250012824	-0.7559095471	-0.0627117488	-0.036546
C	-1.6258139887	-1.7070841446	-1.2415001	-0.345993
C	-1.2092765195	-2.3299001243	 0.0338253612	 0.132677
O	 0.0067850105	-2.9194026948	 0.2296250865	-0.407006
C	-2.4135545093	-0.1073825959	 0.5999712323	 0.228661
N	-3.2700707405	 0.4458294502	 1.1506697983	-0.357431
H	 0.9281718904	 1.6708007255	 0.4409502212	 0.274074
H	-0.7569214071	 1.6132739576	 0.869762197	 0.288501
H	-2.6630497168	-1.7724738607	-1.5487310857	 0.147032
H	-0.89260179	-1.6601326742	-2.0389707507	 0.15605
H	-1.9783794649	-2.7828043151	 0.6505691706	 0.141387
H	 0.6732705883	-2.3536611036	-0.2062493625	 0.313856
