15
gdb 49346	2.30854	1.80595	1.02605	2.6805	69.42	-0.2583	-0.0338	0.2245	1088.5234	0.113345	-454.024106	-454.016023	-454.015079	-454.057873	28.641	
N	 0.1128919128	 1.317231443	 0.0058041735	-0.40886
C	 0.0250465321	 0.056432641	 0.0017726855	 0.080846
N	-1.2083118009	-0.6248054721	 0.0091072398	-0.174246
C	-2.5135977287	-0.0621900585	 0.0199067652	 0.420785
O	-2.7772537886	 1.1045407689	 0.0252491542	-0.300527
C	-3.5073545994	-1.2235306951	 0.0248914419	-0.344036
C	-2.6662235694	-2.5026452436	 0.0153882994	-0.352595
C	-1.2192603935	-2.0348968833	 0.00519043	 0.428414
O	-0.23032033	-2.7218277656	-0.0039460419	-0.344877
H	 1.0970079801	 1.5860325142	-0.001270956	 0.239196
H	 0.8452834036	-0.6655798491	-0.0075855553	 0.142649
H	-4.1436231925	-1.1257594684	 0.9079550934	 0.153076
H	-4.1571296079	-1.1216025034	-0.8478030734	 0.153034
H	-2.8188232608	-3.1364015209	 0.8928943697	 0.153588
H	-2.8325123267	-3.1324702771	-0.8624503761	 0.153554
