21
gdb 57102	2.68979	1.15172	1.03123	3.4001	82.62	-0.2311	0.0342	0.2653	1284.2443	0.18386	-383.29088	-383.281384	-383.28044	-383.328109	34.069	
C	-0.1449480986	 1.4840437757	-0.427501655	-0.401811
C	 0.0122338033	-0.004649018	-0.0821815441	-0.09817
C	 1.0545216844	-0.1810981832	 0.9687071747	 0.266356
N	 1.8262728958	-0.3470570666	 1.8139543654	-0.338054
N	-1.2497902808	-0.6285162947	 0.2729050654	-0.052699
C	-1.9109791439	-0.1404395661	 1.4916883459	-0.165345
C	-2.9823467346	-1.2128946657	 1.8038302441	-0.215706
C	-2.6248183823	-2.4177337329	 0.8934185077	-0.209656
C	-1.2184032843	-2.0887306914	 0.3842890389	-0.162187
H	 0.7977178243	 1.8885646009	-0.8040349475	 0.135149
H	-0.9146155574	 1.5893266784	-1.1956774207	 0.132988
H	-0.4371983814	 2.0677988332	 0.4483024273	 0.13931
H	 0.3849333658	-0.524084866	-0.9736995484	 0.124686
H	-1.1995196867	-0.0558588716	 2.3305672368	 0.104411
H	-2.3430043208	 0.8498730807	 1.3231870421	 0.105307
H	-2.95236249	-1.4831772202	 2.8619365548	 0.1107
H	-3.9896206441	-0.845967325	 1.5945924515	 0.108107
H	-2.6601707125	-3.3734480619	 1.4209281125	 0.10455
H	-3.3187020893	-2.4765824823	 0.0505984199	 0.10918
H	-0.9902893131	-2.5391039288	-0.5875659	 0.101405
H	-0.4535202838	-2.4329705345	 1.1039293888	 0.10148
