17
gdb 108399	2.3298	1.38747	1.08676	4.8592	73.14	-0.2359	0.0276	0.2635	1147.0281	0.136427	-417.960471	-417.951918	-417.950974	-417.994059	31.481	
O	 0.0764949912	 1.4258522711	-0.208221905	-0.406546
C	 0.068548487	 0.0267857096	 0.0265472877	-0.176953
C	-1.3198491017	-0.5364328696	 0.097677446	 0.268648
C	-2.3396346943	-0.2767672179	 1.2163279014	-0.233879
N	-2.9403473024	-1.6421705034	 1.0117968813	-0.318918
C	-1.8892101756	-1.9403705616	 0.032107968	-0.078932
C	-2.0552004059	-1.0212628904	-1.1590758168	-0.250154
C	-3.3295907519	-0.5017848636	-1.5766069522	 0.315664
N	-4.3384117246	-0.0596745254	-1.9295626079	-0.34495
H	-0.3930981665	 1.5909979741	-1.0331001877	 0.289886
H	 0.6521182607	-0.520398233	-0.7319130033	 0.091444
H	 0.5781385448	-0.1093670159	 0.9870878423	 0.117321
H	-1.8399625929	-0.17044912	 2.1838001211	 0.116044
H	-3.0487730329	 0.5438013821	 1.078335388	 0.13517
H	-2.84322458	-2.212908182	 1.8439834767	 0.232718
H	-1.4201184178	-2.9129834145	-0.0634303187	 0.111671
H	-1.3785104972	-1.2453010996	-1.9797530708	 0.131766
