15
gdb 44245	3.37251	1.49063	1.20549	2.381	67.99	-0.2742	-0.01	0.2642	1004.5763	0.114819	-453.95392	-453.946865	-453.945921	-453.985874	26.624	
N	-0.0871336887	 1.2294460929	-0.4929174122	-0.538162
C	-0.0185604516	 0.0463888469	-0.0937037715	 0.43976
O	 1.0548606602	-0.7061737321	 0.3433892743	-0.260345
C	 0.1912924151	-1.8725014779	 0.5796322712	 0.032088
C	-1.0324076905	-1.0643833761	 0.1052704383	-0.201932
C	-1.9123072687	-0.9306986135	 1.3552350507	-0.107335
O	-1.1011567446	-1.3489132202	 2.4687515727	-0.241045
C	-0.032013852	-2.0943389601	 2.0556804574	 0.411553
N	 0.6782690441	-2.8332329574	 2.7888007492	-0.526474
H	 0.823200102	 1.6918501802	-0.4744793784	 0.237576
H	 0.5504376691	-2.7467773325	 0.0418198386	 0.124889
H	-1.5712988486	-1.3804034655	-0.7858377806	 0.12421
H	-2.23929814	 0.0949124816	 1.5368962432	 0.149895
H	-2.7901342128	-1.5835989666	 1.2970789181	 0.123866
H	 0.3431813769	-2.8190015998	 3.7541779391	 0.231457
