19
gdb 119236	2.08361	1.19724	0.87045	2.9954	74.09	-0.249	-0.0222	0.2267	1376.0948	0.155573	-460.140246	-460.129945	-460.129001	-460.176357	35.731	
C	-0.0460301323	 1.4646996821	 0.5523278728	-0.223412
O	-0.0803359107	 0.0585716594	 0.4836403334	-0.240085
C	-1.2276709319	-0.4276107123	-0.1880466314	-0.171985
C	-1.1333267458	-1.9283000265	-0.2528396308	 0.209823
C	-1.3697392864	-2.7411015421	 1.0226947382	-0.340544
C	-2.3891019639	-2.7798138107	-0.0580289534	 0.068069
O	-3.5965573165	-2.0947194141	 0.0743028572	-0.419857
C	-0.1366212108	-2.4900186131	-1.2035632921	 0.097816
O	 0.1104919686	-3.6686340572	-1.3115185925	-0.276724
H	 0.8653255022	 1.7436649297	 1.0864902209	 0.129206
H	-0.0262786812	 1.9237877165	-0.4489329654	 0.104913
H	-0.9153467245	 1.8688213072	 1.0950204943	 0.104404
H	-2.1490575629	-0.1242939092	 0.3270494086	 0.10787
H	-1.2731993463	-0.0088846162	-1.2090575139	 0.089649
H	-0.734017957	-3.608736889	 1.1584879069	 0.141198
H	-1.5908181465	-2.1581184024	 1.9097963111	 0.126803
H	-2.4227822445	-3.672852904	-0.6802420024	 0.117113
H	-4.0998960461	-2.5138202229	 0.7801443964	 0.295721
H	 0.3751351364	-1.7355209551	-1.8400868978	 0.080022
