17
gdb 60908	3.28243	1.21346	1.03914	1.1779	68.52	-0.2588	-0.0434	0.2154	1163.1154	0.133854	-458.927259	-458.918802	-458.917858	-458.961066	31.183	
O	-1.077264664	 0.0956643099	-0.2322807116	-0.425524
C	 0.2112472974	-0.4523800298	-0.2992101529	-0.08332
C	 1.2002739965	 0.568042801	-0.8410119823	 0.132367
O	 0.8336211299	 1.6732873407	-1.1608292246	-0.263017
C	 0.6463290229	-0.9638093972	 1.052924959	 0.405945
C	-0.1772005229	-1.7966387077	 2.0471705783	-0.297396
C	 0.7001279135	-1.1894652745	 3.2001482277	-0.237414
C	 1.4638597726	-0.3899521588	 2.1377336131	-0.046851
O	 2.0199054778	-1.343153563	 1.2108422917	-0.2951
H	-0.9823747274	 1.0093182215	-0.5483420987	 0.297198
H	 0.22730103	-1.3066226115	-1.0028720771	 0.104271
H	 2.2524472966	 0.2435918077	-0.9213539239	 0.127535
H	-1.2179589606	-1.4741976239	 2.0970045071	 0.131817
H	-0.1252069221	-2.8774093192	 1.8975033745	 0.109185
H	 0.1213388844	-0.5585033606	 3.8778200923	 0.114315
H	 1.3112681927	-1.8867317556	 3.7769923379	 0.116301
H	 1.9733814627	 0.5633422711	 2.2233229393	 0.109689
