18
gdb 116266	2.23774	1.56597	1.08563	3.4098	70.65	-0.2764	0.0073	0.2838	1129.5006	0.148547	-439.093761	-439.084908	-439.083964	-439.12899	31.862	
O	 0.2664197919	 1.3084793272	 0.1189369768	-0.430619
C	 0.0763129175	-0.0850605995	-0.0513379113	-0.093682
C	-1.4068277371	-0.4732563786	-0.0946603488	-0.023225
C	-1.6414207268	-2.0031199514	-0.2153863411	-0.252932
C	-2.4205080899	-2.3624809239	 1.059507678	-0.090915
O	-3.1148722378	-1.1685237185	 1.425456747	-0.23454
C	-2.2354556002	-0.092003734	 1.1775014973	-0.044875
C	-1.3769582577	 0.1674251097	 2.3590368213	 0.272916
N	-0.6922782871	 0.3819532533	 3.2661329161	-0.341331
H	 0.3092691939	 1.4883711786	 1.0638527101	 0.300683
H	 0.5331386859	-0.3569711993	-1.0094209559	 0.113038
H	 0.5932448602	-0.66013135	 0.7296616331	 0.110062
H	-1.8618020433	 0.0511854321	-0.9380673073	 0.104155
H	-2.2290891569	-2.2337007363	-1.1064627738	 0.120645
H	-0.7003231637	-2.5568179573	-0.2848302898	 0.113375
H	-3.1704481636	-3.1435892372	 0.9217522425	 0.123587
H	-1.7417391468	-2.6678336505	 1.8691281278	 0.113546
H	-2.8428785685	 0.8023106855	 1.0173057679	 0.140114
