21
gdb 119688	4.43905	1.01769	0.93801	0.9856	83.53	-0.2377	0.0872	0.3249	1339.8606	0.182837	-387.02621	-387.01778	-387.016836	-387.05967	32.209	
C	 0.7451107323	 1.4055102555	 0.3721271281	-0.218118
O	 0.9995062219	 0.0261619401	 0.4757201288	-0.235762
C	-0.1641911279	-0.729686053	 0.7448661938	-0.200887
C	 0.2025402707	-2.1783626589	 0.8320067768	 0.351132
C	-0.6863756082	-3.316628228	 1.332120079	-0.29647
C	 0.6148716635	-4.16241138	 1.3981967041	-0.064703
C	 1.0351973974	-4.3177093291	-0.0895536005	-0.234226
C	 1.2792263503	-2.8105955456	-0.0663724576	-0.091379
C	 1.4338641493	-2.8054430684	 1.4400775509	-0.114295
H	 0.3263654193	 1.8154195947	 1.3051724903	 0.10316
H	 1.697383138	 1.9002155131	 0.1657913484	 0.126385
H	 0.0420003224	 1.6319307928	-0.4453960748	 0.103434
H	-0.6250968159	-0.3957192048	 1.6921738997	 0.083639
H	-0.9165369102	-0.5682383751	-0.0490588587	 0.084845
H	-1.0796585859	-3.0976988708	 2.3299405618	 0.093175
H	-1.4970308416	-3.6834136399	 0.6896568245	 0.082927
H	 0.7015110698	-4.9931154744	 2.0954885526	 0.066607
H	 1.9760012669	-4.8668377545	-0.1894263614	 0.096369
H	 0.2929628214	-4.7322530487	-0.7830739394	 0.082725
H	 1.8182824514	-2.1965765362	-0.7746557951	 0.092098
H	 2.2045692651	-2.4077272189	 2.0835135489	 0.089346
