20
gdb 114712	2.74508	1.36955	1.09725	2.1939	78.71	-0.2373	-0.0241	0.2132	1178.4563	0.171566	-403.151697	-403.143126	-403.142182	-403.185244	32.435	
C	 0.0770489189	 1.3453406283	-0.3710303883	-0.386001
C	 0.2342234694	-0.15520091	-0.1099909034	-0.194358
C	 0.7433475809	-0.4878629174	 1.3100451934	-0.114879
C	 0.7023823051	-1.9824437481	 1.7160851909	-0.199966
N	 2.0862932653	-2.4724412359	 1.9750374028	-0.093812
C	 2.941673526	-2.3755767897	 0.8045947963	-0.244005
C	 2.9937357336	-1.3146610529	 1.8596397714	-0.134752
C	 2.2101545918	-0.0773932935	 1.5487965293	 0.410896
O	 2.6454708127	 1.0483126968	 1.5393390129	-0.331542
H	 1.0205128957	 1.873630745	-0.2178793772	 0.150755
H	-0.2633171667	 1.526834008	-1.3951318318	 0.109757
H	-0.6614767026	 1.7835416492	 0.3096110927	 0.114156
H	-0.7321396616	-0.65656829	-0.2460630467	 0.102232
H	 0.9078650759	-0.5930178424	-0.8577402683	 0.101514
H	 0.1495310535	 0.1003517339	 2.019334971	 0.109962
H	 0.137388956	-2.1182071332	 2.6420849497	 0.117071
H	 0.239474672	-2.6146160585	 0.9517700652	 0.111543
H	 3.7554183938	-3.093460848	 0.7594306435	 0.131795
H	 2.4969167652	-2.1318551442	-0.1576533947	 0.123981
H	 3.8443557853	-1.2397932473	 2.528151131	 0.115652
