16
gdb 53202	3.12223	1.04885	0.8529	3.2469	80.44	-0.2364	-0.0075	0.2289	1364.2758	0.124276	-396.921227	-396.912176	-396.911232	-396.956907	31.481	
C	 0.002856211	 1.5103101443	-0.0164543284	-0.497453
C	 0.0161223337	 0.0562379167	 0.0336045674	 0.033348
C	 0.0274548812	-1.1457097313	 0.0713782844	 0.157583
C	 0.0334044887	-2.600983755	 0.1176952426	-0.233849
N	 0.5558771924	-3.1206559097	 1.4101436109	-0.233749
C	-0.3629038443	-3.8709874798	 1.8752955897	 0.062222
N	-1.5099332857	-3.9957027758	 1.1033141871	-0.340468
C	-1.3735691069	-3.2199301193	-0.0479277521	 0.383047
N	-2.1564956099	-3.0438182222	-1.0269788353	-0.530689
H	 0.6611077373	 1.8872920781	-0.8068241524	 0.14946
H	-1.0054922669	 1.8902752619	-0.2138601357	 0.15047
H	 0.3416066613	 1.9414890726	 0.9319914775	 0.149717
H	 0.6739026139	-2.9901110336	-0.6853001822	 0.143477
H	-0.2924224914	-4.409519041	 2.8153525444	 0.138159
H	-2.3312036739	-4.5213409012	 1.3513273487	 0.259661
H	-3.0274935705	-3.5667004546	-0.9221516967	 0.209065
