21
gdb 96144	2.48807	1.64591	1.23911	1.964	76.75	-0.2406	0.0772	0.3179	1080.7243	0.185392	-424.22453	-424.216753	-424.215809	-424.256377	31.866	
O	 0.041994909	 1.4424346931	-0.0367606147	-0.435762
C	 0.0188623372	 0.0181090837	-0.0447147396	 0.116432
C	 0.8824706457	-0.5283046965	 1.1084518581	-0.197583
C	 0.8529660198	-2.0512813893	 1.3211145045	-0.226084
C	-0.4579885069	-2.5922291925	 1.9233812969	-0.200177
C	-1.726962368	-2.129126222	 1.2139562474	 0.121648
C	-1.6295688717	-2.0021976526	-0.3206422123	-0.292488
C	-1.4249302482	-0.5032209277	-0.0256602984	 0.082486
O	-1.9040700005	-0.6876027154	 1.3340047957	-0.304925
H	-0.343229705	 1.7265332872	 0.8003726578	 0.28221
H	 0.4626606909	-0.2612612087	-1.0095754011	 0.084819
H	 1.9103546544	-0.1972652315	 0.9285776553	 0.100249
H	 0.5481783314	-0.0376940284	 2.0312596902	 0.097435
H	 1.071141498	-2.5603730802	 0.3736609515	 0.098656
H	 1.6733071103	-2.3252052255	 1.993941792	 0.09932
H	-0.4337667869	-3.6899415093	 1.927919194	 0.093951
H	-0.5381126187	-2.2763135164	 2.9714281685	 0.107616
H	-2.6027945136	-2.6578864227	 1.6053851239	 0.07532
H	-0.8297192816	-2.541328711	-0.8311162415	 0.104394
H	-2.5772584092	-2.1996619492	-0.8237784688	 0.110005
H	-2.0560293465	 0.197282115	-0.5823207393	 0.082477
