15
gdb 4203	4.2831	1.61349	1.56682	1.4241	64.33	-0.2491	0.0095	0.2586	859.3288	0.119718	-399.721098	-399.714436	-399.713492	-399.751905	25.777	
O	-0.0935037287	 1.3716403374	 0.0207119774	-0.397179
N	 0.0633684489	-0.0313931949	-0.0041139484	-0.302768
C	-1.0517228109	-0.6117416551	-0.0738790159	 0.497273
C	-2.5481143786	-0.3538388784	-0.0005781927	-0.013866
C	-3.0530524448	-0.9034829466	-1.3533612566	-0.222591
C	-2.2379833621	-2.2435683248	-1.3577950333	-0.223874
C	-1.5106082284	-2.0518248159	-0.0076040886	-0.009715
O	-2.600639953	-1.5553714698	 0.8484205605	-0.302385
H	 0.8182052049	 1.6725204497	 0.1002907378	 0.308525
H	-2.9936998564	 0.5359095254	 0.4368126771	 0.106341
H	-4.1322414683	-1.0672050186	-1.3295328124	 0.115647
H	-2.8121444385	-0.245618639	-2.1918259347	 0.115134
H	-2.8793834792	-3.1267421663	-1.3340426356	 0.115135
H	-1.5468069979	-2.3285416981	-2.1998117707	 0.113635
H	-0.9241130969	-2.8610533651	 0.421851106	 0.100687
