25
gdb 111233	3.01024	1.15513	1.06128	0.0622	91.66	-0.2668	0.0841	0.351	1320.3042	0.232278	-352.365836	-352.357198	-352.356254	-352.398832	34.885	
C	-0.061196285	 1.5617792551	-0.0450600865	-0.38263
C	-0.0478936383	 0.0400705584	 0.1372953974	-0.217993
C	-1.4347498001	-0.5901717708	 0.0128596268	 0.074825
C	-2.0048175032	-0.7319564354	-1.4331008811	-0.005116
C	-1.3333103643	-2.1362816944	-1.4875754799	-0.242121
C	-1.4789327032	-2.1466245025	 0.0629844434	-0.016205
C	-2.8942397262	-2.5925669016	 0.4695143079	-0.213188
C	-3.9345396639	-2.162550265	-0.5963413119	-0.194294
C	-3.5351507185	-0.868293261	-1.3503248925	-0.210501
H	 0.9429743405	 1.9844227001	 0.060264381	 0.109679
H	-0.4369709407	 1.8432758172	-1.0345922879	 0.116744
H	-0.7048354202	 2.0422240822	 0.7004448656	 0.112356
H	 0.6408723622	-0.407904891	-0.5895747714	 0.093487
H	 0.3601117313	-0.2030265975	 1.1278299618	 0.090352
H	-2.1115128702	-0.0926151195	 0.7213273922	 0.046049
H	-1.7042219987	 0.0127950593	-2.1758201159	 0.052304
H	-1.8243401503	-2.9264810287	-2.0622379344	 0.086168
H	-0.2889468259	-2.0798473678	-1.8005411533	 0.095477
H	-0.7071776082	-2.6525147595	 0.6514845329	 0.05008
H	-2.9360610153	-3.6807565473	 0.5966622508	 0.088057
H	-3.1331232168	-2.1560034703	 1.4475212642	 0.092377
H	-4.0263891954	-2.9700899686	-1.3297537547	 0.103085
H	-4.9271169939	-2.0576641281	-0.1474230884	 0.090515
H	-3.9403169905	 0.0184203379	-0.846806788	 0.092838
H	-3.9776560352	-0.8844771408	-2.353366358	 0.087653
