12
gdb 132685	3.15004	1.44721	0.99163	1.1039	61.67	-0.2276	-0.0494	0.1782	1055.2327	0.07803	-513.971415	-513.964479	-513.963535	-514.002798	26.62	
O	 0.0369970985	 1.3262469817	-0.0818875709	-0.418436
C	 0.054124163	-0.0216947622	-0.0500967013	 0.40091
C	 0.0654646151	-0.7502863145	-1.2368416874	-0.103977
N	 0.0824428833	-2.085839052	-1.2089482509	-0.312993
C	 0.0881888185	-2.6943039644	-0.0379952613	 0.280143
O	 0.1052190224	-4.0414100026	 0.0292273003	-0.411602
C	 0.0765179944	-1.9367417906	 1.1437205587	 0.250085
F	 0.0823128259	-2.551667163	 2.3152488849	-0.045009
N	 0.0598395653	-0.6291475507	 1.1380527918	-0.382746
H	 0.0315909752	 1.6295982549	 0.835342154	 0.306235
H	 0.0608136263	-0.2545041484	-2.2005885326	 0.132897
H	 0.1108316122	-4.3579756282	-0.8842841854	 0.304494
