19
gdb 37629	2.7882	2.17293	1.99041	1.6137	75.74	-0.2294	0.0898	0.3192	825.6269	0.164154	-385.873249	-385.867456	-385.866512	-385.902943	25.973	
C	-0.0292428559	 1.5715298638	 0.0522051007	-0.230629
C	 1.4736750196	 1.8828242632	 0.0440861793	-0.0664
C	 2.0618524078	 0.9352497823	 1.1176648481	-0.086034
C	 2.5807245523	 0.0151815483	 0.0370253341	-0.064074
C	 1.2904021193	-0.3170608089	 0.770525868	-0.058803
C	 0.033762125	 0.0313161798	-0.0470443259	 0.087593
O	 0.1864988036	-0.3674711241	-1.4142122461	-0.278422
C	 1.2053674426	 0.3804933193	-2.0815709825	-0.083665
C	 2.170921892	 0.9913761752	-1.0679989068	-0.057125
H	-0.4869319295	 1.8935938182	 0.9940642887	 0.095523
H	-0.5938794869	 2.006753273	-0.77789697	 0.101284
H	 1.7573981678	 2.9343942291	 0.061386632	 0.064294
H	 2.4584262684	 1.1780217869	 2.0941849982	 0.083816
H	 3.4347928386	-0.6517451816	 0.0381949692	 0.082036
H	 1.3000015561	-1.1679339496	 1.4398910335	 0.083755
H	-0.864336316	-0.4788671408	 0.3043115578	 0.07215
H	 1.7280591367	-0.3111763332	-2.7538909369	 0.099991
H	 0.7509563441	 1.1660417455	-2.7071962749	 0.085179
H	 3.0074695045	 1.4968274036	-1.5539286265	 0.06953
