21
gdb 114205	2.76342	1.18583	1.02299	1.9217	78.73	-0.2542	0.0664	0.3206	1278.5187	0.181324	-424.196288	-424.187012	-424.186067	-424.230383	35.222	
C	 0.2900795957	 1.3145771585	 0.4939393364	-0.38744
C	 0.273747859	-0.1580023958	 0.0744745278	-0.177582
C	 0.4300438916	-0.3526585657	-1.4330009588	-0.034514
C	 1.894819496	-0.1877061721	-1.9660320407	-0.32769
C	 1.9986494263	-1.7099636663	-2.0056792016	 0.378334
C	 3.0240512375	-2.6630551088	-2.4159543172	-0.267567
O	 2.7694144587	-2.406802345	-1.0199994376	-0.281372
C	 0.4777529487	-1.8600480268	-1.8899014196	 0.065784
O	 0.0224936095	-2.8736278699	-1.0413559475	-0.431809
H	 1.2271920342	 1.8047997793	 0.2079589685	 0.114687
H	-0.52885788	 1.8685829136	 0.0216273853	 0.113627
H	 0.1807866748	 1.4177581246	 1.5779813256	 0.113588
H	 1.0727495215	-0.6979635271	 0.59871431	 0.100818
H	-0.6647505209	-0.6274719564	 0.3903341151	 0.109691
H	-0.3166981158	 0.2453857798	-1.9645063928	 0.064252
H	 1.9525245964	 0.2681709433	-2.9581878585	 0.107589
H	 2.6072061782	 0.3084484519	-1.302432037	 0.116895
H	 2.7324137024	-3.652719515	-2.7647584128	 0.122877
H	 3.9878773428	-2.3064031205	-2.775941116	 0.121009
H	-0.0050544958	-1.9871849511	-2.8654752181	 0.085916
H	 0.7707403494	-3.0960629005	-0.4695057405	 0.292907
