14
gdb 17507	5.0736	1.82346	1.66558	1.8518	67.52	-0.2378	0.0147	0.2524	786.8268	0.106496	-345.294742	-345.288476	-345.287532	-345.324848	25.233	
C	 0.0940987196	-1.2134555388	 0.0233576291	-0.321273
C	 0.0277299842	-0.0140727493	-0.0212672376	 0.067596
C	-0.0890118582	 1.410493624	-0.0822367499	 0.351066
C	-1.1376252074	 2.2231844977	 0.7396043153	-0.266257
C	-0.9028534907	 3.3265302326	-0.2877737221	-0.138588
C	 0.583062708	 3.1873490105	-0.6643143136	 0.100615
O	 1.1516170016	 2.158659782	 0.1433214804	-0.32995
C	-0.4244768155	 2.3280996605	-1.3372877335	-0.1973
H	 0.1621084431	-2.2725455149	 0.0659801863	 0.188785
H	-2.1353325722	 1.7893727175	 0.6472665882	 0.115815
H	-0.8796986211	 2.3979609825	 1.7880772092	 0.108592
H	-1.465670042	 4.237338686	-0.4428220927	 0.098225
H	 1.2178179662	 3.986912078	-1.0202016846	 0.113659
H	-0.6943532558	 2.1230487318	-2.3632428845	 0.109015
