21
gdb 104470	2.06844	1.32516	1.09653	4.0577	80.46	-0.2449	-0.0158	0.2291	1248.9021	0.179613	-424.227439	-424.216995	-424.216051	-424.262491	37.981	
C	-0.4542834728	 1.4771934844	-0.0792322965	-0.390119
C	 0.21642079	 0.1112178528	 0.1227586328	-0.255152
C	 0.7877777438	-0.4673284707	-1.1606710295	 0.194812
C	 2.0001191418	 0.2091576146	-1.6917044128	 0.125321
O	 2.5914463652	 1.1084762186	-1.1456312532	-0.2723
C	 0.7661421159	-1.9871174507	-1.4539392572	-0.114049
C	 0.220673707	-2.9817597039	-0.4532419585	-0.426554
C	-0.1300900589	-1.0648633057	-2.2206584025	 0.040904
O	-1.4937241511	-1.0028801016	-1.9249687167	-0.412385
H	 0.2572123625	 2.2070064033	-0.4730729755	 0.134609
H	-1.2954492972	 1.3959083127	-0.7730613416	 0.12959
H	-0.8348695373	 1.8596757287	 0.8730723891	 0.106072
H	 1.0395831269	 0.210739304	 0.8388190551	 0.110706
H	-0.5041525587	-0.5851375274	 0.5552429403	 0.102569
H	 2.3606380488	-0.1971064775	-2.6680270375	 0.061214
H	 1.634647484	-2.3419227185	-2.004940432	 0.091604
H	-0.7675117573	-2.6896029715	-0.0929708009	 0.135713
H	 0.1269968967	-3.9680200009	-0.9211393888	 0.119373
H	 0.8837644876	-3.0884073997	 0.4107848966	 0.131287
H	 0.1152916518	-0.8612865761	-3.263784577	 0.092145
H	-1.9220164686	-1.7679453346	-2.3241765139	 0.29464
