20
gdb 59327	3.4402	1.07086	0.85898	4.405	82.21	-0.2405	-0.0269	0.2136	1364.2427	0.170962	-403.206229	-403.197056	-403.196112	-403.240347	34.478	
C	 0.0429849477	 1.5400997119	-0.031883835	-0.400144
C	 0.0632198207	 0.0082821377	 0.0609229141	 0.033882
C	 0.7805667246	-0.4424919792	 1.3405163255	-0.395759
C	-1.3740165625	-0.5699772439	-0.0096824971	-0.019405
N	-2.0932003833	-0.1943911757	-1.212004606	-0.337897
C	-2.6041835742	-1.2690724874	-1.9136021414	 0.400632
O	-3.2997056108	-1.2167828513	-2.9056626244	-0.385744
C	-2.1125024085	-2.4696073879	-1.1725771833	-0.202917
C	-1.4349569534	-2.0791793131	-0.0929171844	-0.074421
H	 1.0593496217	 1.9426407784	 0.0198171875	 0.119754
H	-0.3975940148	 1.8842258661	-0.9719886009	 0.117223
H	-0.5281339374	 1.9782814855	 0.7959350339	 0.113642
H	 0.6059047349	-0.3840595733	-0.8085072626	 0.087837
H	 0.8893962964	-1.529199171	 1.3959928408	 0.117651
H	 1.7844267993	-0.0097170498	 1.3882154754	 0.120187
H	 0.2377622249	-0.1120445516	 2.2343332675	 0.116351
H	-1.9150439041	-0.2294860539	 0.8903554872	 0.093624
H	-2.4057704046	 0.7410683303	-1.4080979943	 0.251887
H	-2.323529093	-3.4757392258	-1.5056508356	 0.12279
H	-0.9679758836	-2.7143115059	 0.6476499629	 0.120827
