17
gdb 42204	3.26165	1.1457	0.86473	3.2062	84.57	-0.2534	-0.073	0.1804	1301.696	0.135236	-384.687366	-384.678757	-384.677812	-384.721328	31.494	
O	 0.0021735758	-0.0548461025	 0.1004568245	-0.307183
C	-0.0358232794	 1.16297939	 0.076649691	 0.144497
C	 1.1959725259	 1.9413795579	 0.0303378151	 0.257534
C	 2.2203039164	 2.5728809137	-0.0118838132	-0.423851
C	-1.2947881138	 1.9389470809	 0.0920213854	 0.245319
C	-2.505513597	 1.3625590356	 0.0702118802	-0.126169
C	-3.6169781554	 2.3735101372	 0.0459222182	-0.262072
C	-2.8954657262	 3.7034195275	 0.3894779992	-0.213077
C	-1.3960409198	 3.4525237378	 0.0813831167	-0.333233
H	 3.1321591561	 3.1178189156	-0.0495435209	 0.211618
H	-2.6582400132	 0.2901365983	 0.0374197828	 0.12512
H	-4.0778290139	 2.3974317887	-0.9526772347	 0.11961
H	-4.4261853236	 2.131617077	 0.7439579317	 0.115293
H	-3.3012248797	 4.5584889114	-0.1558535751	 0.103817
H	-3.0165816761	 3.9138119436	 1.4565428344	 0.111933
H	-0.7313746765	 3.928729424	 0.8083381836	 0.116028
H	-1.1081577396	 3.8485322134	-0.901651829	 0.114816
