14
gdb 46169	1.90123	1.65757	1.29516	2.1719	74.84	-0.2701	0.0073	0.2774	1052.2316	0.098171	-399.461531	-399.452921	-399.451977	-399.494854	31.711	
N	-0.0082255528	 1.2007047892	-0.3070340659	-0.529434
C	 0.0144928233	-0.0074853205	-0.000426148	 0.423522
O	 1.0132362319	-0.8183601725	 0.4797935086	-0.249316
C	 0.1443890637	-1.9835166783	 0.5268959898	-0.103315
C	-1.0538842908	-1.1306862682	-0.0194155832	-0.17387
C	-2.1477455904	-0.9349126656	 0.9218801143	 0.279203
C	-3.0318753914	-0.7837369702	 1.7195504407	-0.427989
C	-1.5135222746	-1.4997857771	-1.3511020971	 0.279176
C	-1.8677283778	-1.8205969229	-2.4522077604	-0.427963
H	 0.8982809085	 1.6488921137	-0.1654604878	 0.23835
H	 0.4913422386	-2.7688387729	-0.1457405115	 0.139215
H	 0.0189578014	-2.3481561401	 1.5471170245	 0.139216
H	-3.8228199953	-0.637768124	 2.4133656131	 0.206604
H	-2.1928150042	-2.0896529907	-3.426993007	 0.206602
