16
gdb 45986	3.35013	1.29025	1.00715	1.1991	72.43	-0.2407	-0.0487	0.192	1129.1791	0.125581	-437.941022	-437.933187	-437.932243	-437.973925	29.471	
O	 0.0679201091	 0.5924732881	-1.2811604137	-0.286466
C	 0.0104897636	 1.2095787642	-0.2496904025	 0.394036
C	-1.2711359027	 1.9525760252	 0.1513407004	-0.280117
N	-1.3841278406	 2.2936667991	 1.5590098093	-0.321075
C	-0.6750911105	 3.2836271966	 2.2105864212	 0.360866
O	-1.0977108676	 3.8040609372	 3.2279709382	-0.36879
C	 0.6532557979	 3.6392278738	 1.645172353	-0.132081
C	 1.4853288745	 2.7912878122	 1.0316001296	-0.088163
C	 1.1883730426	 1.3471446138	 0.7135018579	-0.357083
H	-1.3285003736	 2.8416583374	-0.4936368482	 0.149562
H	-2.1118652686	 1.3127902881	-0.1230514584	 0.149397
H	-2.2792245628	 2.1199377325	 1.9940871339	 0.252318
H	 0.9713722369	 4.6493561228	 1.8794407508	 0.122261
H	 2.4628830823	 3.1536724007	 0.725151578	 0.120318
H	 0.9067499588	 0.8132523635	 1.6310856305	 0.152185
H	 2.0480241808	 0.8431536749	 0.27129486	 0.132832
