16
gdb 50309	2.98151	1.39586	1.05231	10.5587	75.08	-0.2001	-0.0048	0.1953	1111.506	0.125566	-437.851752	-437.844083	-437.843139	-437.88429	28.715	
O	-0.3276167916	 0.0361507867	 0.2448248079	-0.3092
C	-0.0469767623	 1.2185868504	 0.1680825122	 0.063191
C	 1.2296294371	 1.8064262339	-0.029480067	-0.095099
N	 1.2623455703	 3.3013679044	-0.1077050291	-0.291133
H	 0.8851834946	 3.6410022999	-0.9972033688	 0.302906
H	 0.6987952114	 3.7358982718	 0.6287573014	 0.299682
C	 2.6959475846	 3.7209929583	-0.0057441475	-0.061046
C	 3.4153720808	 3.2711297433	 1.2253918795	-0.289893
C	 3.5277634526	 2.4786096901	-0.0590268115	-0.134647
C	 2.5591838484	 1.2860006639	-0.1343731444	 0.353795
O	 2.9414350639	 0.1361953887	-0.2371263656	-0.361922
H	-0.8634832528	 1.9960056159	 0.2652289418	-0.014421
H	 2.9134725275	 4.657508491	-0.5018639865	 0.128695
H	 4.2549202664	 3.8871269414	 1.5289744023	 0.138512
H	 2.8452068468	 2.8335253691	 2.0390061895	 0.147982
H	 4.4650839825	 2.4251239113	-0.5965065843	 0.122598
