18
gdb 92942	2.30799	1.51903	1.29044	1.8209	77.67	-0.2526	0.0141	0.2667	1082.4569	0.146111	-401.933167	-401.924212	-401.923268	-401.96667	33.902	
C	-0.5238279689	 1.3526747117	 0.0363789445	-0.413799
C	 0.1563095406	 0.0040149137	-0.0867017546	 0.087987
O	 1.2661095237	 0.0978790318	-1.0223189058	-0.234781
C	 2.2500652847	-0.6557101262	-0.4864510166	 0.112136
N	 2.1298335654	-1.1352556729	 0.6803960007	-0.280819
C	 0.8273322856	-0.6202328898	 1.1967243538	 0.047952
C	 1.1366661966	 0.3864435556	 2.3212622703	-0.417591
C	 0.0033420298	-1.7098176848	 1.7184125806	 0.339985
C	-0.7094826672	-2.5774188434	 2.1463362172	-0.469486
H	 0.1597272307	 2.1175174587	 0.4117716236	 0.130239
H	-0.8940716143	 1.6731777193	-0.9411570639	 0.133169
H	-1.378273996	 1.2802085212	 0.7157726769	 0.133192
H	-0.541245257	-0.7291692779	-0.5051152801	 0.103217
H	 3.1165143388	-0.7864179635	-1.1262477681	 0.142405
H	 1.7445496139	 1.2107193539	 1.9386241747	 0.122071
H	 0.2185945282	 0.7881355671	 2.7573798337	 0.123076
H	 1.7028409912	-0.1215412315	 3.1042912221	 0.142964
H	-1.3236095558	-3.356777853	 2.5250109011	 0.198083
