18
gdb 126156	3.71227	1.00924	0.85129	3.0169	73.43	-0.3105	-0.0661	0.2444	1364.4995	0.146295	-435.226043	-435.217087	-435.216143	-435.260669	31.991	
C	 0.0010864912	 1.5381208196	 0.1734612815	-0.395139
C	-0.0434522362	 0.0135230816	 0.0448584104	-0.178736
C	-1.4740446773	-0.5588159736	-0.1203503569	-0.076135
C	-2.1515733845	-0.137484587	-1.4300453595	-0.398761
C	-1.4324930504	-2.0484463259	 0.0205406324	 0.412527
N	-1.695095353	-2.9225417704	-0.9083174915	-0.156473
O	-1.5098445513	-4.1281695829	-0.3165735508	-0.14366
N	-1.1271368629	-3.9231464198	 1.0056241368	 0.04251
N	-1.0803929359	-2.6851243259	 1.2050492104	-0.206409
H	 1.0266255634	 1.8763184152	 0.3482238783	 0.122673
H	-0.3597924019	 2.0398618644	-0.7291033718	 0.124096
H	-0.6095993811	 1.8818620276	 1.015751033	 0.12046
H	 0.5636088891	-0.310383258	-0.8100345541	 0.10849
H	 0.4073152782	-0.4373966901	 0.9354837765	 0.12441
H	-2.0709798846	-0.1917539657	 0.725946916	 0.109609
H	-3.1495185648	-0.5747283791	-1.5171546564	 0.132407
H	-2.2519859979	 0.9489648794	-1.4754530316	 0.122616
H	-1.56852966	-0.4660689795	-2.2956134028	 0.135515
