15
gdb 46297	3.3027	1.38531	1.26212	2.639	66.79	-0.2617	0.0014	0.2631	1007.9572	0.114321	-453.948394	-453.941139	-453.940195	-453.980662	26.769	
N	-0.1537013211	 1.1826264252	-0.2650069072	-0.54127
C	-0.0322725703	-0.0382424363	-0.0213674316	 0.404591
O	 1.05304029	-0.7956925861	 0.3548031851	-0.256057
C	 0.23266545	-2.0007197608	 0.472553341	-0.121632
C	-1.0175449164	-1.203907052	 0.0256570422	 0.162954
C	-2.2450958838	-1.0551323033	 0.9533097961	-0.18023
O	-3.3620558114	-1.4461546898	 0.1204448843	-0.213978
C	-2.8268825674	-1.7079605064	-1.0889883015	 0.122259
N	-1.5732836255	-1.6120854565	-1.2667423642	-0.295636
H	 0.7337774042	 1.6807388314	-0.182444094	 0.233531
H	 0.554743602	-2.7718981762	-0.228614629	 0.136773
H	 0.228922931	-2.3718168587	 1.5012150669	 0.11775
H	-2.2207299615	-1.7111784725	 1.8272271373	 0.127277
H	-2.3973218186	-0.0204322596	 1.26881314	 0.151455
H	-3.5448731912	-1.9996444785	-1.8469639154	 0.152212
