20
gdb 7166	2.41838	1.37513	0.93713	1.3842	77.51	-0.2487	0.0579	0.3066	1288.3534	0.17328	-348.9722	-348.962052	-348.961107	-349.008022	35.81	
C	-0.0476442159	 1.5134898286	-0.0198334871	-0.383181
C	 0.0129431434	 0.0001818185	 0.1064100469	-0.037447
O	-1.3037927975	-0.5045978023	-0.0037495738	-0.250818
C	-1.4138444837	-1.9172641284	 0.0072263276	 0.145997
C	-1.4077202165	-2.4753624825	 1.4331059413	-0.403669
C	-2.727238295	-2.2567149132	-0.7215246847	-0.362043
C	-2.7092019015	-1.9027620778	-2.1349326501	 0.309777
C	-2.6812858549	-1.6292166084	-3.3047843575	-0.446369
H	 0.9563830387	 1.94293786	 0.0490324134	 0.11218
H	-0.4854750876	 1.7975586242	-0.9806859735	 0.13086
H	-0.6635402648	 1.9407328466	 0.7766886638	 0.124892
H	 0.6468722594	-0.4286108481	-0.6871434008	 0.090033
H	 0.4661057986	-0.2819824189	 1.0704242587	 0.084684
H	-0.5782666644	-2.3553720158	-0.5614360994	 0.075001
H	-1.4751884734	-3.5680502192	 1.4251780924	 0.11472
H	-0.4878814082	-2.2029048252	 1.9577468579	 0.119407
H	-2.2546902453	-2.0774284671	 2.0012543995	 0.123517
H	-2.9299379775	-3.3289589185	-0.611158478	 0.124769
H	-3.541487825	-1.7259720166	-0.2123190615	 0.136314
H	-2.663957109	-1.3793349761	-4.3363310652	 0.191376
