23
gdb 64275	2.77126	1.39108	1.25608	1.2515	83.95	-0.2236	0.0735	0.2971	1150.8342	0.206336	-388.286242	-388.277387	-388.276442	-388.319	35.679	
C	-0.0439319776	 1.5471236106	 0.0003795626	-0.424443
C	-0.0323944638	 0.0123072937	 0.006170047	 0.246864
C	-1.4750392753	-0.5210561679	 0.0313802489	-0.407004
C	 0.6849011653	-0.4832031382	-1.2611251195	-0.092254
O	 0.7012512754	-1.8976668707	-1.3792598881	-0.259292
C	 1.1545472142	-2.59875742	-0.2574377401	 0.134168
C	 2.47301447	-2.3183662459	 0.4078877797	-0.334858
C	 1.1672350802	-1.9690115858	 1.1118428607	-0.07071
C	 0.7562929262	-0.5020016498	 1.2369782883	-0.248181
H	 0.9700712802	 1.9557898203	-0.0756977464	 0.109562
H	-0.6283049626	 1.9374704776	-0.8403946454	 0.110599
H	-0.4895238075	 1.9351681679	 0.9229333972	 0.113068
H	-2.0263222063	-0.2000373319	-0.8593892671	 0.108119
H	-1.4984188147	-1.6129596861	 0.060004023	 0.128189
H	-2.0097999669	-0.1439922633	 0.9100850485	 0.104692
H	 0.1690304841	-0.1284444111	-2.1593393461	 0.103284
H	 1.7101647998	-0.0780201699	-1.2900852225	 0.084377
H	 0.8475567223	-3.6355448287	-0.3474765421	 0.096605
H	 3.0551885273	-3.1610774021	 0.7646900358	 0.108301
H	 3.0700018322	-1.4880669205	 0.0444558959	 0.11323
H	 0.8806207133	-2.6090436902	 1.9400663196	 0.085625
H	 1.6454498219	 0.124800468	 1.3796381726	 0.093647
H	 0.1428087822	-0.3670923061	 2.1345294173	 0.096412
