19
gdb 43151	2.52616	1.72762	1.35339	2.966	79.6	-0.2303	-0.0018	0.2285	1018.5663	0.160832	-385.878141	-385.870684	-385.86974	-385.90985	30.051	
O	 0.0023357749	-0.0282477993	-0.0025533514	-0.325395
C	-0.0130038001	 1.1650380075	 0.0402040665	 0.43617
C	-1.0850940435	 2.2777901223	-0.0087003519	-0.226799
C	-0.8055965862	 3.0013564428	 1.3292934885	-0.221001
C	 0.7680751673	 3.0224286312	 1.3059292476	-0.221001
C	 1.027003818	 2.3060628434	-0.0400525258	-0.226799
C	-0.0515222751	 2.9522926671	-0.9431582201	 0.429266
C	-0.0744978957	 3.0176413043	-2.4325346377	-0.357735
C	-0.0792489245	 4.2930153277	-1.6009021907	-0.363405
H	-2.1155184805	 2.0878074901	-0.3027461284	 0.082468
H	-1.2292627687	 4.0086854575	 1.3349227509	 0.106786
H	-1.208021604	 2.4572588455	 2.1876778873	 0.110625
H	 1.1646055806	 4.0407399028	 1.2993827372	 0.106786
H	 1.2102199275	 2.4896400267	 2.1517755297	 0.110624
H	 2.0529610351	 2.1436011044	-0.3646271628	 0.082468
H	 0.8320297842	 2.7704785498	-2.9757777897	 0.120457
H	-0.9897734915	 2.7460575668	-2.9487764487	 0.120458
H	-0.9978496274	 4.8700602745	-1.5617208043	 0.118013
H	 0.8242972494	 4.8945119749	-1.5887696061	 0.118013
