20
gdb 90595	2.36721	1.59967	1.18862	3.7463	80.07	-0.235	0.0358	0.2707	1122.2704	0.171202	-403.162307	-403.153425	-403.152481	-403.195962	32.96	
C	-0.2087813323	 1.5533743605	-0.0059306598	-0.41379
C	 0.0291562501	 0.051068529	 0.0099935449	 0.030107
C	 1.125693647	-0.5393852093	-0.9339111153	-0.261375
C	 1.7781510832	-1.2770610793	 0.2758706335	-0.187568
C	 0.7504945259	-0.5972478435	 1.2371571567	-0.021075
N	 1.875908037	 0.1481529697	 1.8028308924	-0.060196
C	 1.976752929	 1.1792622559	 2.805581459	-0.351594
C	 2.839604644	-0.424083973	 0.9991474591	 0.400159
O	 4.0285097446	-0.246817268	 0.9235617304	-0.381657
H	 0.7242269292	 2.1037790404	 0.151941951	 0.125119
H	-0.6166553354	 1.8702951816	-0.9718962866	 0.120123
H	-0.920284192	 1.8571363678	 0.7701184189	 0.113893
H	-0.9182044087	-0.4754794608	-0.1494227624	 0.076959
H	 0.7359309342	-1.2067781015	-1.7046834935	 0.108864
H	 1.7787792277	 0.1944069516	-1.4132662116	 0.115038
H	 1.9391717765	-2.3513113769	 0.2190716627	 0.095659
H	 0.1458802888	-1.1340794484	 1.9720204254	 0.076251
H	 1.6064426885	 0.8283312534	 3.776377938	 0.126705
H	 3.0350244417	 1.4339915781	 2.9049276114	 0.16071
H	 1.4211361011	 2.0822190625	 2.5285263659	 0.127667
