20
gdb 31802	4.41884	0.94169	0.83393	1.4832	92.56	-0.1935	0.0089	0.2024	1440.9336	0.172924	-366.090331	-366.081542	-366.080598	-366.12409	33.928	
C	-0.0630800708	 1.5577476114	-0.0608295527	-0.360757
C	 0.0001899225	 0.0213300538	-0.0025218438	-0.290352
C	 0.7280199492	-0.4964149628	 1.2168395782	 0.290815
C	 2.1091085144	-0.7106294141	 1.2034851456	-0.176551
C	 2.7901605356	-1.1568547756	 2.3294075908	-0.172782
C	 2.1043159548	-1.4077775101	 3.5247450421	 0.305144
N	 2.7910337768	-1.8017597147	 4.67833325	-0.59086
C	 0.7194552349	-1.1985851309	 3.5477839888	-0.172798
C	 0.052636803	-0.7520666338	 2.4134681923	-0.176619
H	 0.9427064544	 1.9898359516	-0.0793060875	 0.117565
H	-0.5961118933	 1.897720092	-0.9550655759	 0.10669
H	-0.5786958274	 1.9611531509	 0.8166920396	 0.117571
H	-1.0201731865	-0.3802216573	-0.0181988089	 0.097454
H	 0.4921405294	-0.3517416192	-0.9088593382	 0.097472
H	 2.6670612271	-0.5314331648	 0.2881198033	 0.083445
H	 3.8640002891	-1.3166371301	 2.2859614655	 0.077241
H	 3.6621768483	-2.2814945184	 4.5016614192	 0.24332
H	 2.228256564	-2.3101657412	 5.3454570373	 0.243318
H	 0.1652073424	-1.3911717425	 4.4622614184	 0.077237
H	-1.023372338	-0.6057843342	 2.4595032859	 0.083446
