19
gdb 83378	2.71563	1.75392	1.55718	1.073	74.43	-0.238	0.0488	0.2868	954.8328	0.160316	-422.935714	-422.928521	-422.927577	-422.966869	29.622	
C	-0.0700699358	 1.6220407953	 0.0732725556	-0.445365
C	 0.0293574068	 0.1067690355	 0.046877537	-0.002952
C	 1.1341127483	-0.6295710386	-0.7558962494	-0.163904
C	 2.4010471274	-0.0138370029	-0.0536703782	-0.101975
O	 1.9975326022	 0.0411275364	 1.3643977449	-0.348691
C	 0.7738993183	-0.6483671126	 1.2172150122	 0.383902
C	-0.1088079909	-1.5950810221	 2.0208721216	-0.184666
O	-0.2535083847	-2.3797904014	 0.7842345949	-0.307274
C	 0.9884918329	-1.8017958876	 0.2540203835	 0.092007
H	 0.8295306634	 2.0846532456	 0.4863622476	 0.132679
H	-0.2339683903	 2.0225090751	-0.933401237	 0.115127
H	-0.9159392895	 1.9397741919	 0.6920669646	 0.117276
H	-0.939393857	-0.3534758362	-0.142151028	 0.09892
H	 1.1790578607	-0.6930821622	-1.8454156089	 0.071515
H	 3.2954158312	-0.6398708244	-0.1442358866	 0.11269
H	 2.6254651304	 0.994903115	-0.4075955251	 0.118475
H	 0.4101981396	-2.1736101845	 2.794385758	 0.116514
H	-1.0714762955	-1.2290193052	 2.3892209108	 0.115156
H	 1.8139579326	-2.5118885672	 0.3525423226	 0.080565
