20
gdb 121042	3.26693	0.92189	0.79888	2.2137	76.87	-0.2661	0.0224	0.2885	1503.2827	0.170847	-440.309991	-440.300743	-440.299799	-440.345058	33.355	
C	 0.3217763303	 1.5078171602	-0.062701435	-0.380223
C	 0.1095180725	-0.007064626	-0.0036817461	-0.172416
C	 0.6303178324	-0.7275590216	-1.2518291774	-0.196817
C	 0.405891977	-2.234258254	-1.212993328	 0.191568
O	 0.848833153	-2.8823994088	-2.3876137666	-0.259673
C	 2.121425016	-3.4478645311	-2.1218320519	-0.174913
C	 2.1896589134	-3.5276638578	-0.6127049245	 0.381285
N	 3.0669115018	-4.1291478475	 0.0617042509	-0.535161
O	 1.1267034115	-2.8292493486	-0.1235080002	-0.235745
H	 1.3855378227	 1.7552017303	-0.1487301384	 0.117802
H	-0.1903673661	 1.9476471028	-0.925579997	 0.116157
H	-0.0617122223	 1.9968201192	 0.8378191195	 0.11618
H	 0.6076900198	-0.419626992	 0.8805849053	 0.11551
H	-0.9602899386	-0.2233588684	 0.1180337841	 0.098586
H	 0.1268136805	-0.3496687977	-2.1499639781	 0.111709
H	 1.7032707086	-0.5370789468	-1.3833983573	 0.101686
H	-0.6555491257	-2.4723131306	-1.0724015448	 0.101396
H	 2.186884717	-4.43632533	-2.582455066	 0.145954
H	 2.9395359875	-2.8259828073	-2.5114322301	 0.129584
H	 2.8983176889	-4.0202759144	 1.0625752315	 0.227531
