19
gdb 78085	2.73285	1.21227	0.99539	1.9817	82.48	-0.2462	0.0515	0.2978	1250.6572	0.156984	-385.82355	-385.814325	-385.813381	-385.857097	35.402	
C	 0.0070449745	 1.5494258421	-0.0012015036	-0.421083
C	 0.0868433492	 0.0415101928	 0.1126496825	-0.085076
C	 1.3127270138	-0.8135672692	-0.1534308558	-0.131411
C	 2.5957545808	-0.1185432553	 0.3578047272	-0.181363
C	 1.9651097043	-0.09330938	 1.8032343077	-0.318194
C	 0.6972716645	-0.7462896976	 1.2392740007	 0.383192
O	 0.0128910338	-1.7521805604	 1.900663404	-0.460212
C	 3.8046149015	-0.9095936345	 0.2362372647	 0.297179
C	 4.8012801236	-1.5748433237	 0.1340520246	-0.432842
H	 0.8878123886	 2.0493866939	 0.4105859905	 0.122902
H	-0.0878288537	 1.8584690047	-1.0478565265	 0.122755
H	-0.8659468241	 1.9346824791	 0.5373055122	 0.114167
H	-0.8020232369	-0.4695945401	-0.2554530116	 0.090124
H	 1.3064686764	-1.6192809331	-0.8764427486	 0.102058
H	 2.7653060557	 0.8744979377	-0.0726055207	 0.099039
H	 2.4945403605	-0.7761950327	 2.4684544922	 0.12865
H	 1.8697359343	 0.8853858381	 2.2847972695	 0.093452
H	-0.7367663004	-1.3596930463	 2.3609060363	 0.285046
H	 5.6833415138	-2.1585177657	 0.0430950345	 0.191616
