18
gdb 112197	2.52771	1.32195	0.96717	3.2087	74.52	-0.268	0.003	0.2711	1248.7913	0.146385	-439.062668	-439.053906	-439.052962	-439.096418	32.194	
C	-0.0981376848	 1.5759167631	 0.1113065941	-0.384724
C	 0.338347051	 0.1253465887	-0.1177509456	-0.201954
C	 0.7142958672	-0.582263727	 1.1673656589	 0.061651
O	-0.4342257077	-0.728786264	 2.0864639424	-0.288714
C	-0.2932794912	-2.1031580418	 2.1552557838	 0.383434
N	-0.9180715847	-2.9722944299	 2.8042414756	-0.549433
C	 0.8475781293	-2.1080717211	 1.1787439439	 0.278209
C	 1.2139766298	-3.0799384549	 0.1480577281	-0.253702
O	 2.0384160455	-2.8436798909	 1.2974191991	-0.253644
H	 0.707153079	 2.1650297339	 0.5630572885	 0.120372
H	-0.375175833	 2.0541299469	-0.8322518385	 0.119265
H	-0.9613746623	 1.616664787	 0.7812496945	 0.140167
H	-0.4619408867	-0.4394068439	-0.6102640799	 0.108216
H	 1.2092967019	 0.0922996238	-0.7852678666	 0.109866
H	 1.5330531643	-0.0779235938	 1.6917512077	 0.107886
H	-1.6496629144	-2.5593095577	 3.3846590052	 0.232909
H	 0.7073375708	-4.0424314907	 0.1285741872	 0.144275
H	 1.6210724958	-2.7297526377	-0.7989937784	 0.125922
