20
gdb 19289	3.19941	1.70713	1.34756	1.7157	74.04	-0.2475	0.0848	0.3322	1001.4985	0.176261	-348.97193	-348.963587	-348.962643	-349.004528	31.513	
C	-0.1856727935	 1.5393411489	-0.0424675991	-0.38834
C	-0.171030697	 0.0110668261	 0.0723629971	-0.183925
C	 0.7296559732	-0.51649699	 1.1858352763	-0.020997
C	 0.7519414687	-2.0344539464	 1.4140120352	 0.007788
O	 1.354528877	-2.6419414383	 0.2617733482	-0.251468
C	 2.2121790218	-2.0965349006	 1.2740684266	 0.022894
C	 2.3164979216	-0.5844472469	 1.0168505931	-0.028091
C	 2.9815043999	-0.1690869127	-0.2889812341	-0.409877
H	 0.8083556458	 1.9404454849	-0.2630958428	 0.120393
H	-0.8585952341	 1.868145167	-0.8406539013	 0.113125
H	-0.5269289693	 2.0020913234	 0.8906902794	 0.111151
H	-1.1933204041	-0.340987367	 0.2672721874	 0.093287
H	 0.1241104969	-0.4399918105	-0.8804844822	 0.112257
H	 0.4958337059	-0.0029027558	 2.1259502574	 0.070122
H	 0.0695859	-2.6488487491	 1.9914504113	 0.096701
H	 2.937474097	-2.7693481098	 1.7183346368	 0.09757
H	 2.7922495023	-0.0814905217	 1.8648121289	 0.073673
H	 2.5487657302	-0.7083785676	-1.1350899761	 0.135192
H	 2.8806713561	 0.9045151658	-0.4742039617	 0.116464
H	 4.0529867318	-0.3979267296	-0.2593356703	 0.112081
