18
gdb 84546	3.58612	1.33635	1.06593	3.5025	78.37	-0.218	-0.0023	0.2157	1134.063	0.148694	-401.974619	-401.966843	-401.965898	-402.007084	30.004	
C	-0.1854022405	 1.5335840726	 0.0119328442	-0.398601
C	 0.0365924643	 0.0181394896	-0.05897221	-0.05584
C	 0.961351254	-0.4266716409	-1.1871501348	-0.096351
C	 1.919206222	-1.2489117996	-0.7548197788	-0.080391
N	 1.8444648176	-1.4347313381	 0.6514893096	-0.112401
C	 0.7721055935	-0.5465081071	 1.187947856	 0.030661
C	 0.2264426698	-1.748153526	 2.0067551333	-0.411788
C	 1.3191843649	-2.5821990249	 1.3016731681	 0.404446
O	 1.6283520739	-3.734914608	 1.2413396808	-0.322545
H	 0.7666622716	 2.0613699783	 0.1309053316	 0.122381
H	-0.6634626036	 1.9053116392	-0.8997284057	 0.118366
H	-0.8294083175	 1.7967724019	 0.8579906903	 0.117545
H	-0.9449873219	-0.46355693	-0.1865878336	 0.085618
H	 0.8261720925	-0.1202932928	-2.2165825006	 0.103798
H	 2.6845640477	-1.7599272164	-1.3220696663	 0.134211
H	 1.1831266438	 0.2630208464	 1.7989447872	 0.088432
H	 0.306359626	-1.6791406017	 3.0936716534	 0.134616
H	-0.7806739481	-2.0763612126	 1.7389714252	 0.137842
