15
gdb 53223	4.2315	0.85382	0.78042	5.0225	77.	-0.2655	-0.046	0.2195	1463.4802	0.111648	-420.645816	-420.637237	-420.636293	-420.681167	29.819	
C	-0.0036219167	 1.4958429569	-0.0013717577	-0.498525
C	 0.02773916	 0.0421250215	 0.0391625328	 0.048562
C	 0.0613950644	-1.1597290803	 0.0848372799	 0.107327
C	 0.0911139724	-2.6169658154	 0.1153159519	-0.115845
O	 0.5349190643	-3.1111166975	 1.3907926252	-0.219537
C	-0.4151059344	-3.948318798	 1.9300030624	 0.425377
O	-0.2672583735	-4.4919373396	 2.9857967615	-0.339513
C	-1.5493946788	-4.0127337831	 0.9740048574	-0.225352
C	-1.2708129455	-3.2504267728	-0.0777131538	-0.069717
H	 0.5893616929	 1.8823748797	-0.8370270437	 0.155018
H	-1.0270725138	 1.8692985321	-0.1129842032	 0.154368
H	 0.4068382139	 1.9178709304	 0.922146248	 0.162052
H	 0.7977213687	-2.9895686768	-0.6404820347	 0.13579
H	-2.4297668732	-4.6062713967	 1.1708397379	 0.139367
H	-1.8721120505	-3.0589221103	-0.9558770439	 0.140629
