20
gdb 110015	2.32405	1.48616	1.0352	4.9931	74.77	-0.2501	0.0234	0.2734	1192.0724	0.17281	-440.336159	-440.327356	-440.326412	-440.369551	33.553	
C	-0.0653911073	 1.5867738606	-0.1615769903	-0.397906
C	 0.0109092428	 0.060786009	-0.017140453	-0.025043
C	 0.8810944271	-0.5643929363	-1.1414603997	-0.17939
N	 2.2008939684	-0.6232524275	-0.5314426241	-0.307554
C	 2.1918418983	-0.5759043324	 0.8273768845	 0.436096
O	 3.1684716662	-0.645984084	 1.5567574048	-0.411263
C	 0.7334405782	-0.4179111473	 1.2667557182	-0.134798
C	 0.6289961076	 0.4225200923	 2.5479036613	-0.080299
O	 1.2879733735	-0.2141149655	 3.6193657601	-0.429782
H	 0.9315441985	 2.0403099319	-0.1672958522	 0.129085
H	-0.5598231278	 1.8539403541	-1.1010830507	 0.115242
H	-0.6361007091	 2.0407969954	 0.6531193365	 0.128934
H	-1.0026082305	-0.347203976	-0.0627135959	 0.084326
H	 0.5227489949	-1.5650695679	-1.4206845069	 0.109159
H	 0.8915384924	 0.0536136111	-2.0449770781	 0.113863
H	 3.0474550716	-0.8295299228	-1.0377567964	 0.254305
H	 0.3858495129	-1.4282141623	 1.5239563578	 0.109853
H	 1.0334406647	 1.4309360846	 2.367900903	 0.088326
H	-0.421894148	 0.5397090888	 2.8364549122	 0.100516
H	 2.1856684156	-0.3961463557	 3.297975999	 0.296331
