15
gdb 23574	3.18237	1.50704	1.33065	2.2615	67.83	-0.2398	0.0149	0.2548	969.1343	0.113242	-453.810398	-453.803503	-453.802558	-453.841657	27.538	
O	-0.0790681682	 1.3784766041	-0.0537055235	-0.397266
N	 0.0782319275	-0.0228633688	-0.0089250463	-0.319105
C	-1.0284736532	-0.5989388673	 0.1471195759	 0.529829
C	-2.5270024796	-0.3346750447	 0.0811958782	-0.029627
O	-2.5558979149	-1.4999981944	-0.8323996667	-0.305449
C	-1.4925819006	-2.0363626755	 0.0475858374	-0.023252
C	-2.2734862448	-2.2381884263	 1.3667076124	-0.053449
N	-1.965936115	-1.2042373386	 2.3799984421	-0.32118
C	-3.0421674484	-0.968521669	 1.391232559	-0.04862
H	 0.8283259908	 1.6762164148	-0.1782474522	 0.307991
H	-2.9806717898	 0.5663528206	-0.3216198927	 0.106465
H	-0.9135522349	-2.8478247127	-0.3860209732	 0.100227
H	-2.6791668185	-3.2012383766	 1.6486001696	 0.108821
H	-2.3837156689	-1.4740708269	 3.2694230101	 0.236068
H	-4.0781193014	-0.8896509388	 1.6947943098	 0.108548
