18
gdb 80275	2.51658	1.50596	1.24143	3.5338	71.67	-0.2409	0.0251	0.2661	1071.6719	0.147323	-439.114552	-439.105881	-439.104937	-439.147687	32.929	
C	-0.0157102	 1.5330150791	 0.0168202622	-0.484111
C	-0.0161652625	 0.023537146	 0.0166499086	 0.269551
C	-1.3161663739	-0.7185627206	-0.2683338352	-0.411497
C	-1.3314053679	-1.9410732117	 0.664461378	 0.395209
O	-2.1809926079	-2.7956803836	 0.7517683861	-0.3647
N	-0.1494167033	-1.9077869824	 1.3775763773	-0.317803
C	 0.6937365079	-0.7835329323	 1.0977254951	-0.127475
C	 1.2615366788	-0.736326703	-0.3059924503	 0.074231
O	 1.2460802437	-1.8646497943	-1.1201642671	-0.430104
H	 0.9656278082	 1.9306575807	 0.2955842424	 0.117647
H	-0.2612044504	 1.9259017364	-0.9762985013	 0.12865
H	-0.7497895614	 1.9321024714	 0.7263337401	 0.121616
H	-2.1956429135	-0.1003870668	-0.0649784299	 0.129913
H	-1.3886443662	-1.0717614564	-1.3012827002	 0.147484
H	 0.0695246987	-2.6257241124	 2.0496709251	 0.255845
H	 1.2014218906	-0.3269675404	 1.9406408583	 0.102624
H	 2.1511298701	-0.1281332991	-0.4544816763	 0.100069
H	 1.0199165789	-2.6254625806	-0.570955073	 0.292852
