19
gdb 102916	2.17937	0.94244	0.69392	1.7041	79.59	-0.2486	-0.0359	0.2127	1611.7403	0.154241	-422.987265	-422.976548	-422.975604	-423.024501	36.867	
C	-0.1450799345	 1.4861318031	-0.0803569341	-0.390444
C	 0.0400061706	-0.032630137	-0.1140991624	-0.199745
C	 0.880033954	-0.5001615141	-1.3110715277	 0.061004
O	 2.168652062	 0.0756129527	-1.1955100189	-0.255244
C	 2.9185994986	 0.0192488748	-2.4008817237	-0.220632
C	 4.2271199137	 0.62260516	-2.1950924543	 0.282926
C	 5.3129638593	 1.1140445873	-2.0511319899	-0.412693
C	 0.9730096102	-2.0240857227	-1.295216341	 0.129009
O	 0.1455986238	-2.7604784044	-1.763740996	-0.243495
H	 0.8221487462	 1.9921970492	-0.040343259	 0.14071
H	-0.6769275791	 1.8381568847	-0.9709744256	 0.115726
H	-0.7268483711	 1.7838953582	 0.7967769759	 0.11791
H	 0.5303949432	-0.3726318346	 0.8062473445	 0.112802
H	-0.9278409241	-0.5422385179	-0.1709029478	 0.121116
H	 0.3890750609	-0.1914397563	-2.2478749659	 0.089468
H	 3.042541314	-1.0227661109	-2.7398056688	 0.128135
H	 2.3825498817	 0.549631508	-3.2051927011	 0.128441
H	 6.2723452724	 1.5500711587	-1.9186785251	 0.205049
H	 1.8780012783	-2.4032755687	-0.7646940891	 0.089959
