16
gdb 29736	3.3548	1.33094	0.95865	1.9505	84.58	-0.1809	0.0112	0.1921	1167.6799	0.123129	-400.754764	-400.745654	-400.74471	-400.789019	33.214	
C	 0.0263222758	 1.4344124869	 0.0304718506	-0.342693
N	 0.0401186418	-0.0151099919	 0.0193690319	-0.122911
C	 0.1007707946	-0.7857740334	-1.0980286638	 0.35892
O	 0.1441606776	-0.1456298221	-2.2917562272	-0.441959
C	 0.1052735287	-2.1224089097	-0.7512661604	-0.285441
C	 0.0446935125	-2.1626971644	 0.6632207391	-0.247903
C	 0.0053544611	-0.8624444113	 1.1347757573	 0.158179
C	-0.0598674165	-0.368752175	 2.4479794579	 0.269664
C	-0.1161727538	 0.0601089405	 3.5752891021	-0.480147
H	 0.9587211818	 1.8383222048	-0.3758803235	 0.141313
H	-0.8066810291	 1.8165823309	-0.5661426677	 0.143118
H	-0.0873299965	 1.7655222691	 1.06274073	 0.156231
H	 0.1764104929	-0.8067661084	-2.9897757338	 0.309986
H	 0.1464082431	-2.9582665907	-1.4321286867	 0.093957
H	 0.0294650507	-3.0434438447	 1.2853864037	 0.104724
H	-0.1651897947	 0.4240228093	 4.5710552306	 0.184961
