20
gdb 70617	2.43291	1.8409	1.31894	2.2763	78.05	-0.2323	0.081	0.3134	1033.0178	0.171441	-403.116888	-403.108796	-403.107852	-403.149106	32.21	
C	 0.0900159196	 1.4851801208	-0.0194515262	-0.48266
C	-0.0271668838	-0.0174714853	-0.0014389634	 0.254432
C	-0.6070045442	-0.7526326571	 1.1585817773	-0.297303
N	 0.8417226363	-0.787710354	 0.9205293046	-0.135399
C	 1.2891961042	-2.0012897251	 0.2057214001	-0.158116
C	 0.4032456498	-2.1770969669	-1.0519180404	-0.342323
C	-0.098008092	-0.7617405434	-1.3161637647	 0.413444
C	-0.9666414595	-0.3893680773	-2.4353344843	-0.261891
O	 0.4303425781	-0.0759404307	-2.4610917761	-0.273974
H	 0.9058567602	 1.8016084718	-0.6736352467	 0.13948
H	-0.8340022905	 1.9475910692	-0.3844556264	 0.114416
H	 0.2809981661	 1.8573573583	 0.9896644514	 0.126195
H	-0.90614096	-0.1931335186	 2.040795587	 0.114727
H	-1.1969836381	-1.6483052271	 0.9773241887	 0.105927
H	 2.3330415645	-1.8394155061	-0.0812036105	 0.116627
H	 1.2574280298	-2.8643392984	 0.8772404267	 0.106478
H	 0.9560635095	-2.5565183294	-1.9133440802	 0.122165
H	-0.4341921477	-2.8573843976	-0.8689554313	 0.111374
H	-1.2878508122	-1.1518236099	-3.144574191	 0.112956
H	-1.63548842	 0.4659156266	-2.3465900847	 0.113446
