16
gdb 36225	3.68132	1.0709	0.95815	3.4636	74.08	-0.2588	-0.017	0.2418	1225.2559	0.124861	-400.75105	-400.743352	-400.742408	-400.784023	28.704	
N	-0.1005758172	-1.0912692945	 0.5427429255	-0.307903
C	-0.062069529	 0.0215956847	 0.2345324637	 0.262758
C	 0.010733208	 1.4370933224	-0.1423175122	-0.454984
C	 1.4216513552	 1.9650275567	-0.121604824	 0.341353
C	 2.0657135128	 2.5726746356	-1.1224319653	-0.184879
C	 3.4681114053	 2.9938694218	-0.7362010499	-0.287055
C	 3.5520829111	 2.5975361717	 0.7340463018	 0.047742
O	 2.6124015353	 3.2655156689	 1.5782594555	-0.25524
C	 2.2875510949	 1.9397890935	 1.1018199658	-0.069248
H	-0.4284238443	 1.5583822262	-1.1378217902	 0.15937
H	-0.6208337632	 2.0018554667	 0.5566843093	 0.168513
H	 1.6409281955	 2.7849660543	-2.0978269858	 0.105347
H	 4.2266203749	 2.4710332585	-1.3324675313	 0.121738
H	 3.6340087359	 4.0683874749	-0.8782662172	 0.13161
H	 4.505845442	 2.3566167324	 1.1945763646	 0.104119
H	 2.1877543127	 1.1768063963	 1.8677878597	 0.11676
