22
gdb 111319	2.27415	1.45792	1.20849	2.3684	82.8	-0.2258	0.0795	0.3053	1186.4176	0.192423	-404.295731	-404.286017	-404.285072	-404.32991	36.652	
C	 0.3183706892	 1.3237195897	 0.2154316762	-0.235906
O	-0.2218037064	 0.0856997712	-0.1838687367	-0.229612
C	 0.5145836449	-0.5420615488	-1.1928674822	 0.111082
C	 1.9187357979	-1.082514964	-0.876394846	-0.105293
N	 1.7628970016	-2.102953811	 0.1902985058	-0.334264
C	 1.4842370774	-2.4669227946	-1.2142279201	-0.07918
C	 0.0434732171	-2.0122086397	-1.5346946415	 0.275665
C	-1.0533414322	-2.5819894906	-0.6422815639	-0.43465
C	-0.2856577498	-2.1664811386	-3.0190703356	-0.453367
H	 1.3260283634	 1.2124801077	 0.6421510937	 0.110688
H	 0.3749639892	 2.0340196579	-0.6256325046	 0.097703
H	-0.3434561812	 1.735966607	 0.9807582941	 0.12673
H	 0.540703983	 0.0853307748	-2.0988872986	 0.055424
H	 2.8734372542	-0.5991207895	-1.045991578	 0.088049
H	 2.699259009	-2.4421095655	 0.4093726427	 0.22731
H	 2.0408011699	-3.2540047383	-1.7104138004	 0.085294
H	-0.7755710615	-2.4972245578	 0.4086897854	 0.145087
H	-1.994397139	-2.0437239943	-0.793630516	 0.113078
H	-1.2251856406	-3.6386389613	-0.878644968	 0.097208
H	-0.4426424924	-3.2200902128	-3.2768319281	 0.111711
H	-1.2007350986	-1.6202343715	-3.272323108	 0.119108
H	 0.5219722148	-1.78439249	-3.6536006198	 0.108134
