14
gdb 131217	4.12042	0.96089	0.81498	4.4162	67.76	-0.2341	0.0165	0.2507	1313.8776	0.102216	-432.900828	-432.892731	-432.891787	-432.934485	29.224	
O	 0.4318872461	 1.2601114605	 0.1075576883	-0.424881
C	 0.187469703	-0.0585029294	-0.0185677212	 0.47408
C	 0.5288702533	-1.0138110273	-0.9540647237	-0.443408
C	-0.0609391579	-2.1987985283	-0.4506324419	 0.373859
C	-0.0579343122	-3.5751966912	-1.0607412083	-0.437564
C	 1.2681526022	-4.001920634	-1.5108340247	 0.263767
N	 2.3128589507	-4.3269550091	-1.8817931766	-0.314661
N	-0.7081480352	-2.0007864068	 0.6895181536	-0.295622
N	-0.5462918387	-0.6744341483	 0.9336894329	-0.252455
H	 0.9798276077	 1.5486367374	-0.6291479351	 0.318603
H	 1.1209924906	-0.884985906	-1.8450578145	 0.119108
H	-0.4366573764	-4.285288348	-0.3194183649	 0.17389
H	-0.7360934318	-3.620825676	-1.9225313041	 0.162625
H	-0.9367898215	-0.2600561435	 1.7628692903	 0.28266
