19
gdb 10067	3.40235	1.25715	0.98453	3.4663	72.38	-0.2618	0.0309	0.2928	1206.7002	0.163392	-365.075673	-365.065877	-365.064932	-365.110961	33.65	
C	-0.4623790682	 1.1062382276	 0.4743547337	-0.394126
C	-0.197734386	-0.3378444938	 0.0452428252	-0.176373
C	 0.5451539781	-0.4330189133	-1.2915142578	 0.122194
C	 0.8418295536	-1.9157443155	-1.631524779	-0.342789
C	 1.6625206115	-2.0956874017	-2.8259736615	 0.267498
N	 2.32425622	-2.2321581013	-3.7639157298	-0.315923
O	-0.2690828229	 0.1474052681	-2.2923953801	-0.250463
C	 0.4067590808	 0.9325189875	-3.2608747207	-0.255517
H	 0.4746702163	 1.6525620799	 0.6297443444	 0.113456
H	-1.0387388908	 1.6313175023	-0.2910996776	 0.13605
H	-1.0256733279	 1.1389980056	 1.4112848798	 0.116601
H	 0.3865052657	-0.8607137827	 0.8120929656	 0.096636
H	-1.1479487326	-0.8775139508	-0.0539722416	 0.109331
H	 1.4989219113	 0.1109454763	-1.2174225145	 0.084855
H	 1.353037305	-2.3950755126	-0.7891193145	 0.147715
H	-0.1116852235	-2.4350317418	-1.7763147441	 0.158581
H	 1.1085257225	 0.341758799	-3.8607854199	 0.142803
H	-0.3615931217	 1.3445440282	-3.9194201208	 0.130801
H	 0.9525681987	 1.7640417988	-2.7917097767	 0.10867
