20
gdb 18879	3.19349	2.58695	2.37786	0.157	76.49	-0.2695	0.0855	0.3551	741.2699	0.182612	-311.887112	-311.881523	-311.880579	-311.916266	25.091	
C	-0.0260232916	 1.5635932081	 0.0650146652	-0.22233
C	 1.517084326	 1.4973642927	-0.0295038116	-0.014019
C	 2.1451588479	 1.1318172988	 1.341999845	-0.214149
C	 1.8684411142	-0.3858002087	 1.4463475863	-0.007395
C	 0.3386484249	-0.5991492147	 1.3767915169	-0.214148
C	-0.0273476178	 0.0175295301	 0.0002450079	-0.014021
C	 1.3757039148	 0.0850313436	-0.7132247381	-0.006799
C	 2.3009878788	-0.8654263064	 0.0437594935	-0.222964
H	-0.4648147027	 2.0393195822	 0.9495571261	 0.081903
H	-0.468723327	 2.0075905152	-0.8320474177	 0.089324
H	 2.0385630328	 2.3029639215	-0.5497511638	 0.054103
H	 3.2245853678	 1.3198897662	 1.3399203092	 0.089367
H	 1.7116305507	 1.7081927375	 2.1662659338	 0.087687
H	 2.3537972029	-0.8753110373	 2.2935153197	 0.051127
H	 0.1048767382	-1.6693592613	 1.4000040687	 0.089368
H	-0.2021150623	-0.1255310153	 2.2031270266	 0.087686
H	-0.8646644207	-0.4788310444	-0.4938346155	 0.054103
H	 1.3747890564	 0.0640897664	-1.8023412467	 0.055799
H	 3.3628336819	-0.691537612	-0.1615183777	 0.087678
H	 2.0780409748	-1.9225902523	-0.1367732881	 0.087678
