21
gdb 105244	2.51627	1.22921	1.03064	1.9842	78.53	-0.2526	0.0581	0.3107	1259.3831	0.182933	-420.348883	-420.339504	-420.33856	-420.383216	35.412	
C	-0.4283580589	 1.516649958	 0.554795919	-0.420769
C	-0.1308960917	 0.0344769887	 0.5572583617	-0.033357
N	 1.0855275098	-0.4461424991	-0.1338581565	-0.396168
C	 0.9651370874	-0.6092858809	 1.3329509701	 0.265941
C	 1.9995427897	 0.2271481734	 2.101136914	-0.113536
O	 2.5749948949	 1.2461614772	 1.3176812494	-0.418691
C	 0.8056229088	-1.9872688301	 1.9131707552	-0.085606
C	-0.1803920364	-2.2570903463	 2.9928772148	-0.232663
N	-0.3468782867	-2.8634146563	 1.6616612898	-0.330306
H	-0.8544456359	 1.8159285549	-0.4087196	 0.119702
H	-1.1625410403	 1.7545892739	 1.3323841851	 0.115111
H	 0.4756819117	 2.0976763258	 0.7381285457	 0.156063
H	-1.0186980582	-0.5786660923	 0.4001800178	 0.072065
H	 0.9131906817	-1.3256357352	-0.6137561625	 0.239443
H	 1.5284433167	 0.6905471095	 2.9767243421	 0.108028
H	 2.7761871678	-0.4591855568	 2.4798298866	 0.088062
H	 2.5266950165	 0.9149185356	 0.4059794198	 0.291417
H	 1.7436967538	-2.5404942934	 1.947441138	 0.10253
H	 0.0563690629	-2.9532427473	 3.7921285263	 0.12458
H	-0.8449515624	-1.4447109449	 3.275987275	 0.116128
H	-1.0763039411	-2.3711154043	 1.1524247688	 0.232026
