18
gdb 68621	2.82744	1.55015	1.22851	4.6138	75.82	-0.2676	0.0261	0.2937	1051.6624	0.148445	-401.95418	-401.946299	-401.945355	-401.986303	30.709	
C	 0.043161748	 1.5180440511	 0.1101937059	-0.500048
C	 0.0088957766	 0.0219095071	 0.0168707484	 0.41106
C	 0.7957916635	-0.7117320926	-1.095320198	-0.26208
C	 0.5888473709	-2.1714784182	-0.5833883629	-0.235343
C	-0.2551980306	-1.8197476019	 0.6561171835	 0.078975
O	 0.4642478665	-0.6877075015	 1.2169957998	-0.32196
C	-1.3119416457	-0.8279456107	 0.0894748908	-0.214042
C	-2.2791940244	-0.3494609936	 1.0589938349	 0.283705
N	-3.0692952354	 0.0401118747	 1.8077818618	-0.331698
H	 1.0715604838	 1.8557538966	 0.2725778409	 0.137292
H	-0.3213454252	 1.9666844084	-0.8193337285	 0.128241
H	-0.5754463402	 1.8731822799	 0.9379246629	 0.154649
H	 0.3873598615	-0.5326512708	-2.0932881211	 0.106478
H	 1.8431774081	-0.4035547872	-1.0869679942	 0.11757
H	 0.0650433623	-2.8186320614	-1.2914916623	 0.107794
H	 1.5227441862	-2.6548601441	-0.2918896041	 0.120683
H	-0.5127843831	-2.5911339065	 1.3795035121	 0.103117
H	-1.8058191127	-1.0861340293	-0.8513029401	 0.115606
