21
gdb 82803	2.84318	1.54422	1.50193	1.7348	80.35	-0.2361	0.0743	0.3104	1018.911	0.185654	-387.059852	-387.052406	-387.051462	-387.091411	30.75	
C	-0.1361802252	 1.5526563059	-0.0526565033	-0.425928
C	 0.019939587	 0.0439269396	 0.0211745093	-0.015912
C	 1.2845719125	-0.7280665818	-0.2927606085	-0.045857
C	 2.6811210616	-0.0974668443	-0.3435023154	-0.248805
C	 3.2493495572	 0.1232414342	 1.073511706	 0.100964
C	 2.3359484032	 0.9931392777	 1.9551620867	-0.25424
C	 1.6362991974	-0.3613274265	 2.185054342	 0.066248
O	 2.9192999259	-1.0243286495	 1.9070389063	-0.295385
C	 0.6756633475	-0.8080493617	 1.0966327578	-0.052634
H	 0.8116448299	 2.0813202288	-0.1734066666	 0.124942
H	-0.7472766309	 1.8074699902	-0.9247625221	 0.115477
H	-0.640565456	 1.9621118741	 0.8290903558	 0.121
H	-0.8658592007	-0.4577566925	-0.3630258827	 0.085849
H	 1.1650672759	-1.5908949243	-0.9393870768	 0.084409
H	 3.3477211458	-0.7848626652	-0.8737059161	 0.108102
H	 2.7002489064	 0.8482640124	-0.9015520747	 0.097139
H	 4.3234719794	 0.327833584	 1.0591083289	 0.071304
H	 2.8565208342	 1.3071625978	 2.8618344026	 0.107616
H	 1.794607164	 1.8327129298	 1.5278084773	 0.098793
H	 1.2728445549	-0.5924410761	 3.1889426492	 0.072579
H	 0.14063327	-1.7182167227	 1.3521043242	 0.08434
