17
gdb 24414	3.52741	1.53045	1.10751	0.8648	74.22	-0.2133	0.0201	0.2335	1054.945	0.139197	-421.859853	-421.852989	-421.852045	-421.891119	27.236	
C	 0.0121207483	 1.4237769836	 0.0154018482	-0.073374
C	 1.4616268269	 1.9534878236	-0.0141641783	-0.342461
C	 2.1547090916	 1.1786706835	-1.0745547958	 0.300511
C	 1.7074564541	 0.030691939	-1.6438661385	 0.180461
C	 0.413784228	-0.5836894406	-1.197212371	-0.194208
O	-0.0364071887	 0.0067215397	 0.0162799904	-0.247719
C	 2.6860907789	-0.3342343537	-2.6288266198	-0.318085
C	 3.6483617578	 0.6230937972	-2.5644453634	-0.018237
O	 3.341490904	 1.5586989095	-1.6195900031	-0.195261
H	-0.5007863921	 1.7439451225	 0.926037638	 0.111252
H	-0.5398145202	 1.826476784	-0.8492883814	 0.094235
H	 1.4630676788	 3.0289930255	-0.2276948385	 0.116016
H	 1.9385318389	 1.8156998962	 0.9649813326	 0.12249
H	-0.3594307041	-0.4827421114	-1.979105991	 0.099572
H	 0.5223407044	-1.6528306864	-0.9851142826	 0.120527
H	 2.6792909838	-1.1901037088	-3.2861366773	 0.110783
H	 4.5735898498	 0.7813204069	-3.0930374287	 0.133499
