25
gdb 109174	3.68359	0.89137	0.7876	0.2055	96.1	-0.2251	0.0349	0.2601	1601.4536	0.229935	-352.393623	-352.383811	-352.382867	-352.428174	37.797	
C	 0.1127339338	 1.5324532675	 0.2885658028	-0.371511
C	 0.0157064241	 0.0504536256	-0.1150156578	-0.271092
C	-1.3928648451	-0.4938573012	-0.1089325617	 0.33606
C	-1.9846333235	-0.9320267455	-1.2237259792	-0.165674
C	-3.389635396	-1.46983155	-1.2967359597	-0.240228
C	-4.2142299433	-1.1756631483	-0.0326431171	 0.043034
C	-5.51742303	-1.9779515303	-0.0075324868	-0.403852
C	-3.350546581	-1.4298218486	 1.2102257017	-0.197535
C	-2.1107134966	-0.5260076452	 1.2243862514	-0.30438
H	 1.1506098292	 1.8779966509	 0.2508546253	 0.110597
H	-0.4784549262	 2.1595266783	-0.3867645452	 0.117164
H	-0.2538125946	 1.6995171187	 1.3061827623	 0.117464
H	 0.4497707458	-0.0806757433	-1.1125559826	 0.095202
H	 0.6355418613	-0.5399017349	 0.5757041864	 0.095405
H	-1.4262388233	-0.9127323786	-2.1586162032	 0.069805
H	-3.8990511668	-1.0566244935	-2.1779249914	 0.096546
H	-3.3576403126	-2.557949976	-1.4687354395	 0.098691
H	-4.4687471741	-0.1055673373	-0.0446818217	 0.0695
H	-5.3134191714	-3.054507876	 0.0396104356	 0.110732
H	-6.1293663443	-1.7174343845	 0.8627039026	 0.107795
H	-6.117086512	-1.7938448916	-0.9057684933	 0.108186
H	-3.9387898514	-1.2754071683	 2.1224933298	 0.085623
H	-3.0357266921	-2.4825697825	 1.2144770218	 0.092889
H	-1.4131487994	-0.8557769004	 2.006544517	 0.093909
H	-2.4022365507	 0.495208525	 1.5105198224	 0.105671
