17
gdb 24642	4.40389	1.15304	0.98475	0.9788	83.02	-0.2426	-0.0425	0.2001	1199.4315	0.138862	-380.906703	-380.899475	-380.898531	-380.938887	27.77	
C	-0.236924786	 1.2951133957	-0.3439455511	-0.267814
C	 1.1632893924	 1.1758696995	 0.1731325293	-0.267822
C	 0.2816382765	-0.0590514493	 0.1076948485	-0.079051
C	-0.2276132018	-0.7165199965	 1.3349787608	 0.338093
N	-0.3281323716	-2.0524929856	 1.2984982384	-0.310086
C	-0.7852325945	-2.655992357	 2.3968739404	-0.018306
C	-1.1459340901	-1.9480968122	 3.5372002848	-0.017793
N	-1.0516057531	-0.6161292757	 3.5895408657	-0.235038
C	-0.596015221	-0.0144881776	 2.4948426827	-0.072687
H	-0.9784001186	 1.7806837848	 0.2812455224	 0.123143
H	-0.388811879	 1.438349086	-1.4077949408	 0.123268
H	 1.9854018542	 1.2361462705	-0.5310412406	 0.123266
H	 1.3871069194	 1.5792612125	 1.1547684638	 0.123143
H	 0.5082392965	-0.7772487857	-0.6715590867	 0.103256
H	-0.8654612589	-3.7399816929	 2.3637325913	 0.113122
H	-1.5164500237	-2.4561534781	 4.423221813	 0.11389
H	-0.5196404404	 1.0693930414	 2.5383678281	 0.107417
