17
gdb 36045	3.67313	1.08179	0.93637	3.1039	72.17	-0.2604	0.0184	0.2788	1235.9122	0.13572	-417.967394	-417.958807	-417.957862	-418.001348	31.146	
N	 0.1123766338	-1.3227800992	 0.1735221728	-0.309802
C	 0.032419932	-0.1857763441	 0.3658156421	 0.248351
C	-0.0266507086	 1.2564786614	 0.5787111536	-0.4044
C	 1.2324094978	 1.9966677352	 0.1131278541	 0.283946
C	 2.5668622007	 1.3507909921	 0.1904643076	-0.274453
N	 1.9137300355	 1.5783160154	-1.11312	-0.340101
C	 1.1036376466	 3.4782044478	 0.3283637379	-0.005843
C	 1.4744743086	 4.4499548404	-0.7034334306	-0.162863
O	 0.1000134163	 4.1327950086	-0.4541615105	-0.244112
H	-0.8878999993	 1.6617734912	 0.0345207939	 0.180142
H	-0.204825333	 1.4515357327	 1.6431225053	 0.159234
H	 3.4471671726	 1.9608302822	 0.3720960512	 0.124289
H	 2.6237114029	 0.3344368404	 0.5697607771	 0.139386
H	 1.5219205455	 0.705122233	-1.4604277842	 0.249152
H	 1.1220203193	 3.7903160214	 1.3747088353	 0.097692
H	 1.7793166147	 5.4522113525	-0.4063826114	 0.115373
H	 1.8726027046	 4.0776494889	-1.6428489944	 0.144009
