21
gdb 84371	2.17944	1.58594	1.20664	1.4517	78.72	-0.2562	0.0004	0.2567	1126.9284	0.181316	-424.235001	-424.22553	-424.224586	-424.268436	37.216	
C	 0.5370474057	 1.4094221548	 0.0432202295	-0.460415
C	 0.0837553513	-0.0590041778	 0.0074709425	 0.241699
C	-1.4436344073	-0.124812289	-0.0807646656	-0.456289
C	 0.7788627975	-0.8077322027	-1.1862784924	 0.071854
O	 1.033366277	-0.0257152266	-2.3438578925	-0.432441
C	 2.0050800444	-1.4245488722	-0.5579400897	-0.130311
C	 1.9286717927	-1.433313319	 0.7712994497	-0.130309
C	 0.638068521	-0.8238851242	 1.2630541311	 0.071853
O	 0.7576755844	-0.0573387937	 2.4523460147	-0.432441
H	 1.6287291613	 1.5037828013	 0.1065934115	 0.095291
H	 0.2080616871	 1.9302493402	-0.8595348765	 0.127241
H	 0.1064007736	 1.9185726673	 0.9091125723	 0.127242
H	-1.804814867	 0.3742805655	-0.9861876356	 0.121227
H	-1.7938612221	-1.1626692223	-0.1077333351	 0.110273
H	-1.9065672169	 0.3626242705	 0.7837782904	 0.121226
H	 0.1096695369	-1.5984067199	-1.5511353221	 0.094649
H	 1.7249587295	 0.6078624706	-2.125802737	 0.278886
H	 2.8016741656	-1.8463654274	-1.1617493781	 0.103615
H	 2.6511514084	-1.863632341	 1.4568106782	 0.103615
H	-0.0679271943	-1.6187794053	 1.538408619	 0.094649
H	 1.4692161111	 0.5785299511	 2.3233096359	 0.278886
