18
gdb 66438	2.51357	1.74183	1.40566	2.4092	75.87	-0.2014	0.0645	0.2658	1011.8435	0.145189	-401.835101	-401.826593	-401.825649	-401.867573	32.876	
C	 0.0620040616	 1.5260636775	 0.0857680288	-0.523653
C	-0.0220634714	 0.0463946993	-0.0726160574	 0.259625
C	 0.833754317	-0.954302841	-0.7709499531	-0.106873
C	-0.3065633583	-1.9936072519	-0.8128753098	-0.274116
C	-0.3452295609	-1.9196959504	 0.7096145594	 0.335584
C	-0.61942091	-2.9200768884	 1.7752525335	-0.520841
N	 0.8135116786	-0.9157334436	 0.7385466508	-0.244145
C	-1.2082756843	-0.9811281886	-0.0771713217	 0.271689
O	-2.5698789529	-0.856418427	-0.0454322767	-0.448217
H	 1.1093691404	 1.8314699819	 0.1745881475	 0.135537
H	-0.3755558348	 2.0467672539	-0.7733615883	 0.117881
H	-0.4641344688	 1.8552223768	 0.9884555443	 0.131918
H	 1.7507836796	-0.8379985719	-1.3390110767	 0.090816
H	-0.5758847779	-2.794994616	-1.4869202228	 0.092802
H	 0.2134624174	-3.6235796119	 1.8800504583	 0.128305
H	-0.772328532	-2.4255999846	 2.740917667	 0.131649
H	-1.5241649819	-3.4885192968	 1.5374677669	 0.130141
H	-2.8865282713	-0.6570102073	-0.9343620799	 0.291897
