23
gdb 86348	2.55232	1.11753	0.93199	0.7336	90.9	-0.2539	0.0591	0.3129	1381.0315	0.204114	-351.118746	-351.108591	-351.107647	-351.153621	38.555	
C	-0.3365089807	 1.1571306464	-1.4547974945	-0.412833
C	 0.1173351279	-0.222128646	-0.9824703553	 0.02517
C	 1.5693848433	-0.6136303659	-1.3935577116	-0.242158
C	 2.0486805861	-0.4359898033	 0.0787156821	-0.004336
C	 2.9170345195	 0.7953643546	 0.3286744175	-0.400225
C	 0.5467582129	-0.3655217273	 0.5165026905	 0.021423
C	 0.1103646978	 0.6828928933	 1.5510871769	-0.386903
C	-1.320616918	 0.6321200308	 1.8321650607	 0.29875
C	-2.5021580225	 0.5667965326	 2.0464013034	-0.440228
H	 0.4026822423	 1.9352533796	-1.2359320959	 0.1117
H	-0.4880182431	 1.1535318856	-2.5399600089	 0.111577
H	-1.2806494894	 1.4481835806	-0.9836674846	 0.129008
H	-0.6396521647	-0.9549194787	-1.2765055792	 0.069632
H	 1.6562449523	-1.6415968513	-1.7547984759	 0.095263
H	 2.0455463808	 0.0466225733	-2.1256984843	 0.090708
H	 2.5659568557	-1.3111191949	 0.4848771895	 0.066546
H	 2.4742868219	 1.7076891453	-0.0842181726	 0.117209
H	 3.0879191003	 0.962124246	 1.3980227193	 0.112554
H	 3.8965211183	 0.6680674557	-0.1453813056	 0.112388
H	 0.2316818777	-1.3453799835	 0.8876959565	 0.079461
H	 0.666835119	 0.5185306185	 2.4836294102	 0.12632
H	 0.3765165314	 1.6917419301	 1.2158362279	 0.127315
H	-3.5440871889	 0.5190444786	 2.2441118239	 0.19166
