13
gdb 21057	4.00322	1.8541	1.27744	2.9399	56.25	-0.2097	0.0433	0.2529	879.4945	0.09665	-431.965751	-431.958389	-431.957445	-431.997425	26.425	
C	 0.1135983946	 1.4001430849	-0.0658209374	-0.324898
N	 0.0815505661	-0.0378669689	-0.0138348745	-0.074595
N	 0.128899927	-0.8025101789	-1.1817112122	-0.36778
C	 0.0799218307	-2.0183748088	-0.7472986352	 0.505291
O	 0.0971963318	-3.1280664702	-1.491298709	-0.411922
N	 0.0047089884	-2.1065394981	 0.6099682724	-0.419599
C	 0.0029048096	-0.7955311763	 1.1294866683	 0.477282
O	-0.0543335441	-0.4506229905	 2.2906251319	-0.431938
H	 1.0385195852	 1.7537015354	-0.5325986545	 0.136983
H	-0.7399852025	 1.7897990464	-0.6296493197	 0.136973
H	 0.0646375572	 1.7563041982	 0.9644473053	 0.167013
H	 0.1531691635	-2.8506838395	-2.4156296435	 0.32119
H	-0.0465063175	-2.9399594036	 1.169072778	 0.286
