27
gdb 58101	2.11799	1.21007	1.06967	1.3748	91.34	-0.2571	0.0654	0.3224	1384.2134	0.248748	-390.705719	-390.693785	-390.692841	-390.741559	45.688	
C	 0.0961776812	 1.5255274635	-0.0328193381	-0.420028
C	 0.0348207691	-0.0092076227	 0.0622887615	 0.026267
C	 0.7907662218	-0.4677689576	 1.321398461	-0.401641
C	-1.4266411234	-0.5696457743	 0.0216686136	 0.366197
C	-1.4185777762	-2.0992959008	 0.1283655892	-0.420616
O	-2.1362606745	-0.1315285849	 1.1925779702	-0.470361
C	-2.2107270477	-0.0839650801	-1.2408130722	 0.002575
C	-1.5317371501	-0.4230616526	-2.5769815346	-0.406927
C	-3.6707026633	-0.5690122814	-1.249462648	-0.404318
H	 1.1355705952	 1.8634754561	 0.0227705	 0.11504
H	-0.3218679408	 1.914360882	-0.964916659	 0.117516
H	-0.4335551536	 2.0008936065	 0.8020469918	 0.104755
H	 0.5605971364	-0.4167646744	-0.8098572527	 0.072361
H	 0.2271596024	-0.2058652759	 2.221628341	 0.126274
H	 0.9635575749	-1.5465463843	 1.3327557878	 0.111904
H	 1.7694815955	 0.0196774526	 1.3752380328	 0.10182
H	-1.0457146903	-2.4062916675	 1.1066466103	 0.127125
H	-2.4271482284	-2.5034385777	 0.0243347631	 0.119435
H	-0.7824435577	-2.5478211791	-0.6398270842	 0.110598
H	-2.271791287	 0.8189544559	 1.1169876465	 0.274011
H	-2.2490965976	 1.0115552659	-1.163655564	 0.061206
H	-1.4216683433	-1.5053461753	-2.7047409649	 0.117607
H	-2.1414116689	-0.0590661889	-3.4106188539	 0.111311
H	-0.5410239668	 0.0286552932	-2.6750685542	 0.115727
H	-4.131771466	-0.4436965795	-0.2673156661	 0.124107
H	-4.2526929566	 0.0005097707	-1.9813845215	 0.103974
H	-3.7465238242	-1.6248654895	-1.5292317556	 0.114082
