10
gdb 3643	9.94865	1.99077	1.65883	0.2602	56.63	-0.2502	-0.0263	0.2239	675.1099	0.068776	-318.327053	-318.321532	-318.320588	-318.356271	20.086	
C	 0.0060260967	-1.1874506042	-0.0040512059	-0.431682
C	-0.0220315536	 0.0149245205	 0.0030062888	 0.280634
C	-0.0118607969	 1.4287746259	 0.0108956463	 0.204774
N	-1.1323237569	 2.1718470085	 0.0294268806	-0.269521
N	-0.667505615	 3.4084209929	 0.0305350024	-0.087101
N	 0.6511791165	 3.5608522015	 0.0145123103	-0.172048
C	 1.0949587827	 2.3077936731	 0.0016764928	-0.159664
H	 0.0217974816	-2.2492654208	-0.01010032	 0.20017
H	-1.2893447276	 4.2013404366	 0.0430142386	 0.298796
H	 2.1483505425	 2.0817242861	-0.0130996539	 0.135643
