10
gdb 91	12.23436	4.97895	3.70561	3.6671	39.73	-0.25	0.038	0.288	355.0934	0.080442	-247.225618	-247.220897	-247.219953	-247.253218	16.1	
O	 0.0318413394	-0.034616825	 0.0084983631	-0.351674
C	-0.0244033439	 1.1644053332	 0.0216081138	 0.424337
C	-1.1454132185	 2.23712809	 0.0301290142	-0.364233
C	 0.0092880492	 3.279458779	 0.0455775801	-0.150318
N	 0.9384383847	 2.146521088	 0.0355439604	-0.309566
H	-1.7703052903	 2.2377973038	-0.8642843666	 0.134753
H	-1.776328089	 2.2176538551	 0.9200793396	 0.134756
H	 0.0717056395	 3.9186351578	-0.8407219287	 0.11533
H	 0.0662260314	 3.8982662464	 0.9465795244	 0.115333
H	 1.9461683976	 2.0953571318	 0.0385594495	 0.251282
