18
gdb 80939	2.53812	1.34181	1.2271	2.0961	78.92	-0.2517	0.0344	0.2861	1116.0059	0.146581	-401.850534	-401.842024	-401.84108	-401.883261	33.329	
C	 0.04668894	 1.4385081749	-0.0132811325	-0.521721
C	 0.0245144211	-0.057935797	 0.0583605935	 0.275488
N	 0.6801017218	-0.948879632	-0.9963604127	-0.397847
C	 0.0728364441	-1.9099013655	 0.0090311191	-0.090834
C	 0.7173389622	-1.0044335939	 1.0985272618	 0.166294
O	 2.0986457591	-0.9608255554	 1.2070291671	-0.452181
C	-1.2133050815	-1.0262740231	 0.0817757529	-0.217725
C	-2.1050340838	-1.0698179801	 1.2225183159	 0.289285
C	-2.8537462224	-1.0938713913	 2.1640582355	-0.43164
H	 1.0773670527	 1.8019105044	 0.0465650236	 0.137682
H	-0.3957129152	 1.8042632613	-0.9460479644	 0.121433
H	-0.5181462466	 1.8634340744	 0.8223161291	 0.138012
H	 0.12848806	-0.9405373028	-1.8594981396	 0.208954
H	 0.1327704142	-2.9912271385	-0.117781021	 0.090416
H	 0.2818648971	-1.0427987974	 2.0958152508	 0.102094
H	 2.4205847169	-0.9421404928	 0.2928114176	 0.289235
H	-1.7701762447	-1.0182757618	-0.8613811479	 0.095883
H	-3.5128145548	-1.1202286334	 2.9964379913	 0.197173
