16
gdb 36441	4.11278	1.06074	0.99577	4.9251	68.76	-0.2682	0.0311	0.2993	1189.1461	0.12458	-437.85028	-437.842575	-437.84163	-437.883354	28.201	
N	-0.0104036922	-0.9693547024	-0.6102624459	-0.303086
C	 0.0088837668	 0.156885578	-0.3539259229	 0.265272
C	 0.0336772092	 1.5772973922	-0.0161610736	-0.356198
C	 1.4531503176	 2.1095257499	 0.1682051512	 0.117883
O	 2.2670637347	 2.0215749997	-1.0295747318	-0.304765
C	 2.5816321497	 3.4267073683	-0.9858926258	 0.074014
C	 1.5847305427	 4.2869822579	-1.7722133302	-0.097097
O	 0.6910578985	 4.3471464494	-0.6223215905	-0.291332
C	 1.6298166904	 3.6417187402	 0.2065425689	 0.030864
H	-0.4680773282	 2.1555058675	-0.7970135892	 0.167676
H	-0.528422201	 1.7297159978	 0.9132764078	 0.155424
H	 1.9523257857	 1.598681534	 1.0018448543	 0.101533
H	 3.6510914198	 3.6314475989	-1.0371398983	 0.101978
H	 1.9438436	 5.2884131636	-2.037908101	 0.115253
H	 1.1287904709	 3.8023569981	-2.6408232767	 0.125265
H	 1.8286270753	 4.1401712669	 1.1561552536	 0.097317
