16
gdb 99593	2.39849	1.13056	0.81956	3.0014	66.19	-0.2898	-0.0568	0.2331	1334.9628	0.121421	-475.030022	-475.020194	-475.01925	-475.06546	33.821	
O	-0.0912635862	 1.4770759657	-0.0201907785	-0.415292
C	 0.0236039754	 0.0696899769	 0.0111229691	-0.084383
C	-1.4056530387	-0.4953386543	-0.0106668746	-0.172788
C	-2.0932859784	-0.1346057231	-1.2532437363	 0.286881
N	-2.64315753	 0.090519066	-2.2444673195	-0.325466
C	-1.3920062981	-2.0413214124	 0.1770054391	 0.028223
O	-0.7240361085	-2.3778502563	 1.3548986551	-0.427947
C	-2.8065178304	-2.6070979611	 0.201511269	 0.129675
O	-3.189990683	-3.2494002816	 1.1485577689	-0.257023
H	 0.7917931071	 1.8559244532	-0.0583154626	 0.297942
H	 0.5791524798	-0.3191113308	-0.8558964784	 0.104781
H	 0.5099710327	-0.2905950143	 0.925490107	 0.13043
H	-1.9486577667	-0.0481658868	 0.830522354	 0.146969
H	-0.8851000465	-2.4799694617	-0.7008301849	 0.116165
H	-1.3639325734	-2.888656448	 1.8798272628	 0.30111
H	-3.446638065	-2.4058066116	-0.6761109702	 0.140724
