19
gdb 83670	2.25115	1.63439	1.11469	4.3933	80.46	-0.2307	0.0163	0.247	1135.7268	0.159833	-382.042363	-382.033961	-382.033017	-382.075499	31.607	
C	 0.0181690856	 1.5547041195	 0.1017736013	-0.336729
N	 0.0233491466	 0.1114456208	 0.1852150952	-0.073762
C	-1.022316878	-0.5896325934	 0.9730867239	 0.016436
C	-1.6751856504	-1.7469293332	 0.1881709585	-0.216149
C	-0.4408299753	-2.6419631377	 0.5322955474	-0.237085
C	 0.0792208585	-1.5533202021	 1.5158688995	-0.065207
C	 1.10680564	-0.541479341	 0.9438308858	-0.125995
C	 2.2283829027	-1.0398858183	 0.1433423619	 0.300411
N	 3.1101867248	-1.447965025	-0.4828860489	-0.334643
H	 0.8831727532	 1.8925782792	-0.478179348	 0.13656
H	-0.8841815474	 1.8870693227	-0.4206712294	 0.130135
H	 0.0495057423	 2.0534098082	 1.0886981467	 0.095278
H	-1.6353145267	 0.0588820626	 1.607398354	 0.068441
H	-2.5935949897	-2.1054194953	 0.6621593676	 0.10087
H	-1.8673456371	-1.5482028807	-0.8680205392	 0.110053
H	-0.6823520815	-3.5944208069	 1.007462975	 0.10906
H	 0.2333249169	-2.8360775256	-0.3045915949	 0.131826
H	 0.197606807	-1.8297199299	 2.5610513687	 0.087935
H	 1.5126948287	 0.0933937561	 1.7488204148	 0.102566
