19
gdb 81446	2.59649	1.72091	1.38276	0.6161	74.25	-0.2429	0.0791	0.3221	1005.3754	0.159865	-422.981931	-422.974359	-422.973415	-423.013658	30.403	
C	-0.1493068364	 1.6412757681	 0.0436410308	-0.440933
C	 0.0380217685	 0.1331852987	 0.0405533153	 0.029093
C	 1.1731684548	-0.5899247709	-0.736427083	 0.053699
C	 2.4851663089	 0.0618013155	-0.248617875	-0.324828
C	 2.132106206	 0.0327405253	 1.2500176399	 0.483038
C	 3.0513160776	-0.018016926	 2.3821046352	-0.274494
O	 2.3145308411	 1.1786776078	 2.0753813529	-0.290419
C	 0.7610404746	-0.6406518093	 1.1757761943	-0.033382
O	 1.0412484436	-1.703272773	 0.2106847996	-0.299631
H	 0.7618464929	 2.1798791707	 0.3121539888	 0.143852
H	-0.4764862797	 1.9879351148	-0.942800795	 0.11653
H	-0.9225035027	 1.9276606874	 0.7641252388	 0.124201
H	-0.8993067767	-0.3861787007	-0.1752928721	 0.088061
H	 1.0880760361	-0.8804368148	-1.7833798013	 0.080821
H	 3.3489308736	-0.558161641	-0.497919264	 0.115768
H	 2.6524935825	 1.0778874273	-0.6149335396	 0.115787
H	 2.7588980637	-0.5218006095	 3.3027964192	 0.116355
H	 4.1248404088	 0.0421723082	 2.2079656566	 0.116372
H	 0.2831470728	-0.9659657785	 2.0995138186	 0.080108
