25
gdb 96329	2.05598	1.42234	0.9199	1.1368	89.31	-0.2397	0.0814	0.3211	1385.0524	0.229898	-389.511233	-389.501558	-389.500614	-389.545188	37.698	
C	 0.4308168121	 1.6791138021	-0.0658182358	-0.400559
C	 0.0224936416	 0.2011160706	 0.0084162949	 0.023994
C	 0.3780370421	-0.5291984201	-1.3030024288	-0.172328
C	-0.2672053113	-1.9186432533	-1.4337020777	-0.234991
C	 0.5001536502	-3.0438284053	-0.7178495078	-0.064018
O	 1.1706411149	-2.6554070606	 0.4646193748	-0.2545
C	 0.3979336244	-1.9528923391	 1.4371072774	 0.106303
C	 0.8500692581	-2.4474420253	 2.809253276	-0.391605
C	 0.6197168258	-0.4429862571	 1.2720226521	-0.158317
H	 1.5152597839	 1.7794687552	-0.19345157	 0.113909
H	-0.0511413999	 2.1834743204	-0.9099741283	 0.107505
H	 0.155134932	 2.2161172644	 0.8480040425	 0.107829
H	-1.0738645045	 0.1638062599	 0.1034873685	 0.065005
H	 0.0350557465	 0.0946546095	-2.1372747991	 0.086967
H	 1.4684692278	-0.6068598791	-1.4031179611	 0.098884
H	-1.2973862786	-1.8641065019	-1.0602168895	 0.096201
H	-0.350331145	-2.2005836167	-2.4902335844	 0.093567
H	-0.1840134158	-3.8856371355	-0.5169845037	 0.081945
H	 1.2952629864	-3.4223550172	-1.3696053272	 0.103577
H	-0.6697269028	-2.192911578	 1.3107470791	 0.062948
H	 1.9146240757	-2.2372352443	 2.9547781706	 0.122029
H	 0.2877367457	-1.9560313916	 3.609185149	 0.108215
H	 0.7036335523	-3.5278125462	 2.891550392	 0.115578
H	 1.7061774825	-0.2802031844	 1.2844427293	 0.097035
H	 0.2156317161	 0.0756646638	 2.1512524671	 0.084826
