18
gdb 33654	2.79212	1.49338	1.49337	4.3433	80.6	-0.2766	0.0207	0.2973	994.8397	0.150478	-364.795374	-364.788373	-364.787429	-364.826642	28.308	
N	-0.0025613902	-1.1721040882	-0.0420194422	-0.356696
C	-0.009676297	-0.0139255978	-0.0186542505	 0.107398
C	-0.0174304745	 1.4117130668	 0.0084442536	 0.300881
C	-0.652164326	 2.3303637265	 1.1325023609	-0.093642
C	 0.729259179	 3.0013184641	 1.328272491	-0.22724
C	 1.250449608	 2.3618536814	 0.0183614265	-0.093698
C	 0.7127945491	 3.0504406375	-1.2598504306	-0.227411
C	-0.6660117953	 2.3720137651	-1.0721340185	-0.093606
C	-1.5207469219	 3.013480098	 0.0481753364	-0.227378
H	-1.1549069638	 1.9314759949	 2.0123083242	 0.090019
H	 0.7523546006	 4.0932235085	 1.3985669495	 0.099271
H	 1.2448470171	 2.581944541	 2.1967958041	 0.114468
H	 2.2732231684	 1.9881319219	 0.0048161686	 0.090033
H	 0.7352144337	 4.1442656375	-1.288871787	 0.0993
H	 1.2172129796	 2.664541478	-2.1501583634	 0.114496
H	-1.1799092184	 2.0065195265	-1.9599450428	 0.090042
H	-2.534177639	 2.6024180185	 0.0464169987	 0.114476
H	-1.5839821795	 4.1058906296	 0.0694259917	 0.099287
