23
gdb 115328	3.08052	1.02738	0.87391	0.4443	80.84	-0.2564	0.0704	0.3268	1396.1704	0.205714	-425.433472	-425.423328	-425.422384	-425.468435	37.904	
C	 0.4265762998	 1.7213462692	-0.1897022261	-0.396756
C	 0.1170565156	 0.2306731856	 0.0096308076	-0.038668
C	 0.7142552159	-0.6463024596	-1.1084247038	 0.138238
O	 0.5001444502	-0.0585790886	-2.3811737738	-0.44318
C	 2.2003872014	-0.8169905659	-0.7183476782	-0.254877
C	 2.2354401668	-0.7040410626	 0.8289349359	-0.209351
C	 0.7732576568	-0.4037399552	 1.2581236743	 0.051416
C	 0.6540592486	 0.3938555505	 2.5466369472	-0.111995
O	 1.1903158854	-0.4047252126	 3.5954041611	-0.425805
H	 1.5014408198	 1.9286426684	-0.1575144473	 0.111696
H	 0.0567726801	 2.0536754303	-1.1618350665	 0.134178
H	-0.0521299903	 2.3281190768	 0.5848582699	 0.106723
H	-0.9716095541	 0.1083214003	 0.0407919628	 0.067729
H	 0.2168482772	-1.6290937364	-1.0645287241	 0.061333
H	 0.9094495305	-0.6242102339	-3.0427302324	 0.281359
H	 2.6120603559	-1.7628417704	-1.0842317258	 0.087978
H	 2.7747883565	-0.0128915406	-1.189501689	 0.104021
H	 2.6094324727	-1.6085060689	 1.3122649599	 0.108007
H	 2.8985296876	 0.1089616024	 1.1428913948	 0.097542
H	 0.2701025922	-1.3621146683	 1.4432504564	 0.078345
H	 1.2042761587	 1.3433696858	 2.4577942991	 0.085302
H	-0.403099472	 0.641587138	 2.7390728176	 0.08176
H	 1.1778831646	 0.1146531357	 4.4043913302	 0.285005
