22
gdb 121744	5.20179	0.58672	0.56922	1.9079	80.47	-0.2231	0.0173	0.2405	2067.3153	0.192335	-441.515099	-441.503957	-441.503013	-441.553125	38.137	
C	 0.0006669155	 1.3097809751	 0.4243097998	-0.383992
C	-0.1113579927	-0.159965799	 0.0093360562	-0.189385
C	-1.5409126848	-0.6667061574	 0.1019901052	-0.04362
O	-1.5477554897	-2.050676267	-0.3042656242	-0.242014
C	-2.7386706556	-2.6730692047	-0.2676611139	 0.427613
O	-3.7656462071	-2.1526549004	 0.0938727938	-0.364041
C	-2.6314294766	-4.1091528034	-0.7840732247	-0.287291
N	-3.7853632018	-4.9370455975	-0.5068018492	-0.259689
C	-3.9051686688	-5.3169540512	 0.8999919203	-0.317729
H	 1.0344958698	 1.6582315134	 0.3505315209	 0.12105
H	-0.6138324434	 1.9531532176	-0.2147282021	 0.120952
H	-0.3278623312	 1.4587281575	 1.4585595184	 0.12111
H	 0.2464300181	-0.2918017527	-1.0182379481	 0.109558
H	 0.5275892093	-0.783126483	 0.6454981491	 0.109643
H	-1.9343645951	-0.5935765409	 1.121517981	 0.120568
H	-2.216474552	-0.1014609417	-0.5493887546	 0.118805
H	-2.4693330204	-4.0424747361	-1.8685420372	 0.130978
H	-1.7279016444	-4.5697253332	-0.3708264561	 0.130314
H	-4.6169203988	-4.4200363126	-0.7758572046	 0.227729
H	-4.817097817	-5.9053197286	 1.0355723449	 0.120136
H	-3.0566886699	-5.953901023	 1.1752661074	 0.11754
H	-3.9385747235	-4.4660991812	 1.5985232974	 0.111764
