16
gdb 130207	3.14917	1.27695	0.9119	1.4696	75.58	-0.1909	0.0245	0.2154	1213.5349	0.127552	-430.265002	-430.256598	-430.255654	-430.298152	31.232	
N	 0.1213016128	 1.3797304728	 0.0824169765	-0.610309
C	 0.0351654833	-0.0258473535	 0.011399134	 0.253155
N	-1.1147430509	-0.6896033198	 0.0119803858	-0.290189
N	-0.7458947011	-1.9885581277	 0.0012516154	-0.201016
C	 0.600222993	-2.1740222928	-0.0191046765	-0.095015
C	 1.1464994099	-0.9056606497	 0.0002153709	 0.25151
N	 2.4732904273	-0.4777397307	 0.0382723983	-0.406348
C	 3.5798676703	-1.2780074676	 0.0201255845	 0.073813
N	 3.5204334527	-2.5474655078	-0.1221855805	-0.467872
H	 0.4230862552	 1.7805976013	-0.8014023349	 0.24423
H	-0.7910626406	 1.7672003671	 0.2988424902	 0.250518
H	-1.4589207616	-2.6956063484	-0.0033915039	 0.272656
H	 1.073461741	-3.1384798955	-0.036074747	 0.165581
H	 2.5970214015	 0.4933142042	 0.2777060498	 0.254674
H	 4.5012226421	-0.6940213252	 0.130206751	 0.086122
H	 4.458362605	-2.9400908667	-0.1300363235	 0.218493
