17
gdb 29002	2.48768	1.56297	0.96563	3.2543	85.62	-0.2497	-0.0619	0.1878	1177.3012	0.137293	-384.777716	-384.769785	-384.768841	-384.810229	29.878	
C	-0.0305746706	 1.5335899983	-0.0263227078	-0.507399
C	-0.0073931645	 0.0215357522	 0.0088294592	 0.228262
C	-0.0234959833	-0.6928615049	-1.1911790239	-0.172278
C	-0.0032133006	-2.0847772676	-1.2094383841	-0.104902
C	 0.0340196556	-2.8026558578	-0.0149527167	-0.121364
C	 0.050523871	-2.1128083626	 1.187312105	-0.159729
C	 0.0303225247	-0.7121978053	 1.2129189923	 0.10709
C	 0.050058783	-0.0467767193	 2.5368631917	 0.085578
O	 0.082137859	-0.6346862644	 3.5956415456	-0.268676
H	 0.8554303514	 1.970020472	 0.4466649399	 0.140855
H	-0.0601589846	 1.8877762035	-1.0595557654	 0.127127
H	-0.9057155354	 1.9440936626	 0.4882233208	 0.140846
H	-0.0525361873	-0.1462311072	-2.1289371731	 0.096156
H	-0.0165840704	-2.608681375	-2.1598276674	 0.105322
H	 0.049878048	-3.8870369193	-0.025973734	 0.10563
H	 0.0793992547	-2.6326392439	 2.138511466	 0.127455
H	 0.0335400694	 1.0620765188	 2.5173375817	 0.070029
