19
gdb 109412	2.26549	1.53358	1.0991	3.4716	77.92	-0.2333	0.0019	0.2351	1175.2762	0.157761	-419.154726	-419.145461	-419.144517	-419.189014	33.744	
C	 0.1237345585	 1.3752609073	 0.1850187763	-0.243308
O	-0.2815192055	 0.0608132906	-0.1413550364	-0.24309
C	 0.4678644153	-0.5347334132	-1.1655037572	-0.036959
C	 1.8275800953	-1.2063460338	-0.8614368671	 0.341121
N	 2.9762432066	-0.9047174694	-0.4483021189	-0.513468
N	 1.4189253206	-2.5044102978	-1.3527274113	-0.178792
C	 0.261970798	-2.8782014283	-0.4818632191	-0.27646
C	 0.0031558517	-1.9289507332	-1.5755772744	 0.310595
C	-0.802976816	-2.2393243731	-2.7992603591	-0.499104
H	 1.1232702877	 1.3992640353	 0.6410136684	 0.114146
H	 0.126958704	 2.0286314797	-0.7009068383	 0.110457
H	-0.5973305998	 1.761990032	 0.9085268779	 0.136238
H	 0.5568092186	 0.1409739882	-2.0319312944	 0.087731
H	 3.0278806045	 0.085060382	-0.2037949673	 0.224039
H	-0.0458215256	-3.9080504269	-0.6323065246	 0.1308
H	 0.2599226619	-2.5443048785	 0.5512422853	 0.137793
H	-1.8493377775	-1.9497950713	-2.6508149637	 0.134383
H	-0.4224816386	-1.7011284409	-3.6734796837	 0.127851
H	-0.7748881395	-3.3098383389	-3.0199683424	 0.136027
