18
gdb 19056	3.42015	2.24785	2.06272	1.3627	69.87	-0.2484	0.0769	0.3253	762.4596	0.156626	-347.780487	-347.77414	-347.773196	-347.810538	26.445	
O	-0.0310958133	 1.4565242083	-0.036959802	-0.432176
C	 0.025466301	 0.0317717524	 0.0247587683	 0.091592
C	 0.6923503751	-0.5165490055	 1.3201173136	-0.23311
C	-0.4898818393	-0.9121231647	 2.2107187461	-0.043703
C	-1.4385396599	 0.3076525517	 2.4657672569	-0.227238
C	-2.2730150469	-0.1496215562	 1.270348062	-0.048587
C	-1.5557387575	-1.487015463	 1.2286834699	-0.087801
C	-1.3897043519	-0.5224732934	 0.0879030637	-0.029407
H	 0.8697457192	 1.7811265271	-0.1337732041	 0.278466
H	 0.542307544	-0.3519485938	-0.8670896362	 0.059124
H	 1.3012189279	-1.3974925891	 1.0842866213	 0.091405
H	 1.3467354003	 0.2331067833	 1.7789110045	 0.086764
H	-0.2249562881	-1.5031060472	 3.0874994382	 0.062559
H	-1.9924024388	 0.1912697814	 3.4013470084	 0.092058
H	-0.9931423302	 1.3052899932	 2.421567544	 0.100999
H	-3.3243089359	 0.060109335	 1.1103934038	 0.078783
H	-1.9324458509	-2.4987359107	 1.1560431419	 0.079755
H	-1.920576185	-0.7093586386	-0.8386151601	 0.080518
