18
gdb 80504	2.28846	1.45111	1.23767	1.6962	80.35	-0.2334	0.0123	0.2457	1113.5097	0.145796	-401.865449	-401.85644	-401.855496	-401.898634	34.402	
C	-0.0959417502	 1.5888264554	-0.0399045862	-0.440112
C	 0.0349125164	 0.0878102723	 0.1059655858	-0.022173
N	 1.1989383077	-0.7137096817	-0.3020037802	-0.183421
C	 2.4324516478	 0.0681918542	 0.0655402914	-0.185018
C	 2.0956076094	 0.0327842349	 1.5659871064	 0.03045
O	 2.0917880465	 1.2834525079	 2.2122461267	-0.418598
C	 0.7579226129	-0.6366583331	 1.1911241735	 0.098972
C	 0.1932972913	-1.7224772415	 1.9197008842	 0.197574
C	-0.2702004033	-2.613526864	 2.5839194294	-0.393248
H	 0.7035290525	 2.13987047	 0.4521771284	 0.153178
H	-0.1250143075	 1.8612875393	-1.1010315658	 0.124311
H	-1.0423194481	 1.9084873174	 0.4081916207	 0.124844
H	-0.8673550843	-0.4444473791	-0.1913315557	 0.105931
H	 3.3231725382	-0.5009152682	-0.2027860453	 0.11709
H	 2.4904414128	 1.063028999	-0.3821611101	 0.118252
H	 2.726639728	-0.687122326	 2.1009346438	 0.092117
H	 1.8217443585	 1.153122518	 3.1276012601	 0.289346
H	-0.6836744285	-3.4071778949	 3.1554435029	 0.190504
