15
gdb 43044	2.58938	2.31063	1.68044	3.2079	67.83	-0.2229	-0.0311	0.1918	820.9186	0.114906	-420.607905	-420.601966	-420.601022	-420.638014	24.825	
O	-0.006658085	 0.0578177454	 0.0774041084	-0.327203
C	-0.0303345881	 1.2513254678	 0.0161270671	 0.476886
C	-1.2099980154	 2.2414141487	 0.0096871846	-0.063159
O	-0.8252383438	 2.963937201	 1.2248009812	-0.303368
C	 0.2411169671	 3.5005663133	 0.3923573742	 0.100521
C	-0.6610346758	 3.4362393198	-0.8645290329	-0.085382
C	 0.2538728647	 3.0900501013	-2.0101612737	-0.102707
C	 1.3353567541	 2.4753344644	-1.5120148369	-0.091485
C	 1.1398898839	 2.287217517	-0.0177697681	-0.223409
H	-2.2290609928	 1.8648979074	-0.0101445533	 0.103879
H	 0.709853192	 4.4060559905	 0.7769325519	 0.098083
H	-1.3868421112	 4.2390215668	-0.9846064379	 0.09198
H	 0.0484049142	 3.2971186759	-3.0521533894	 0.112237
H	 2.1636576345	 2.0556204639	-2.0680353918	 0.118789
H	 2.0075277715	 2.0402306567	 0.5890369067	 0.094338
