19
gdb 101075	2.26732	1.20139	1.0281	2.4607	77.83	-0.2477	0.0326	0.2803	1261.0469	0.156951	-422.97218	-422.962454	-422.96151	-423.006679	36.624	
O	-0.0684780997	 1.4778202212	 0.0952180051	-0.424997
C	-0.0540131503	 0.0923034319	 0.3639923834	-0.067648
C	-1.3680024099	-0.5530928052	-0.0917229149	 0.018621
O	-1.6198021349	-0.1881638323	-1.4485794701	-0.446595
C	-1.3996192144	-2.0662541509	 0.1005833972	 0.149249
C	-1.7304450019	-2.6067131661	 1.4845810253	-0.298724
C	-2.7424320687	-2.7243897266	 0.38512804	-0.302205
C	-0.4648524863	-2.7871317973	-0.7234595123	 0.252876
C	 0.3089560467	-3.3454039369	-1.4583612242	-0.457955
H	-0.4522834445	 1.558037561	-0.7881542007	 0.284586
H	 0.7881083865	-0.4127873763	-0.1383825965	 0.089226
H	 0.0793730137	-0.035386589	 1.4435984237	 0.104899
H	-2.1893290288	-0.107612652	 0.4809581817	 0.091132
H	-1.0563647447	-0.7473144262	-2.0003055339	 0.287431
H	-1.210546523	-3.5004902417	 1.8074505005	 0.13152
H	-1.9001141803	-1.8748421083	 2.2671778926	 0.127059
H	-3.6082389153	-2.0719415214	 0.4017408533	 0.130147
H	-2.9162456194	-3.7016404305	-0.048648349	 0.131247
H	 0.9984409051	-3.8566940133	-2.083870801	 0.200133
