19
gdb 67027	2.15483	2.1215	1.62534	1.6444	79.31	-0.2205	0.0075	0.2279	954.7786	0.158447	-385.860525	-385.852581	-385.851636	-385.892244	32.086	
C	-0.0776342769	 1.564859301	-0.0626253919	-0.520097
C	-0.0423015614	 0.0696588449	 0.0145718893	 0.207805
C	 0.5225134447	-1.0124738437	-0.8282081672	 0.04983
O	 1.1811102866	-1.6950935599	 0.2026428246	-0.328529
C	 0.4401448673	-0.846340473	 1.2026026426	 0.352553
C	 1.36985245	-0.3334281179	 2.2662253544	-0.497301
C	-0.7571149294	-1.6818598021	 1.5776639533	-0.152388
C	-1.5687027973	-1.7556632523	 0.5118683957	-0.064283
C	-1.0393108451	-0.9060787358	-0.5754662668	-0.190293
H	 0.8870774306	 2.0071325987	 0.2098720741	 0.1238
H	-0.3155467889	 1.890693543	-1.0805510272	 0.124303
H	-0.8417758175	 1.980579607	 0.6043278057	 0.126057
H	 0.9424840947	-1.0623642345	-1.8263551154	 0.106794
H	 2.1999049103	 0.2256041982	 1.8263904463	 0.126717
H	 0.8304628788	 0.3202750902	 2.9597230073	 0.123522
H	 1.7862359489	-1.1691753017	 2.8376066521	 0.132476
H	-0.8198213187	-2.2640925953	 2.4883003525	 0.09623
H	-2.4297753769	-2.404456283	 0.4057482208	 0.100938
H	-1.6353705497	-0.6067149437	-1.4301777603	 0.081868
