15
gdb 132609	3.1724	1.308	0.92698	1.8632	72.95	-0.1967	0.0052	0.2019	1164.1125	0.1134	-461.97703	-461.969338	-461.968394	-462.008805	30.53	
N	-0.0421941228	 1.4261498873	-0.1168776433	-0.593941
C	-0.0060662217	 0.0292605826	-0.0484391203	 0.343893
C	-1.1941144499	-0.7126459252	-0.0068209878	-0.201533
C	-1.1531734679	-2.1051071728	-0.0039607162	-0.218317
C	 0.0663984846	-2.7483542864	-0.0407072236	 0.132671
F	 0.1555040782	-4.1001110984	-0.0363359069	-0.106773
C	 1.2640739844	-2.0329028337	-0.0804530683	 0.296226
O	 2.4596717493	-2.6769768193	-0.1123539189	-0.442497
C	 1.2226040974	-0.6444922437	-0.0835455954	-0.297841
H	 0.7881985449	 1.8845599023	 0.2297319013	 0.246545
H	-0.8751584641	 1.8407400014	 0.2756563003	 0.245616
H	-2.1502110445	-0.2010158148	 0.017511578	 0.086557
H	-2.0625356659	-2.6939599599	 0.0293958381	 0.109705
H	 2.2783415506	-3.624992673	-0.1043912734	 0.30221
H	 2.1583510273	-0.0971810465	-0.1190621536	 0.097479
