15
gdb 54778	4.05864	1.16585	1.09176	3.0134	66.86	-0.2486	-0.012	0.2366	1097.4249	0.112496	-453.915745	-453.908014	-453.90707	-453.94832	29.245	
N	-0.1145850813	 1.3236996009	-0.1987327102	-0.542535
C	-0.0468960446	-0.0508216411	-0.1124956821	 0.41091
O	 0.8551628618	-0.7140289574	-0.5801035609	-0.374206
N	-1.1169999977	-0.6058118418	 0.6198632851	-0.164553
C	-2.5653629132	-0.4353254715	 0.1511985658	-0.169988
C	-2.286621908	-1.4889086837	-0.9679938341	-0.240375
C	-1.5273518751	-2.0269733628	 0.2933169118	-0.139984
C	-2.8222235428	-1.6635616317	 1.0621899914	 0.486414
O	-3.6032272463	-2.0975204039	 1.8401263864	-0.304637
H	 0.7501709751	 1.7616258862	-0.4772676826	 0.265662
H	-0.6379102313	 1.8131443439	 0.5102618446	 0.260865
H	-3.0524845536	 0.534703815	 0.0906059137	 0.111062
H	-3.1307518781	-2.0663675062	-1.3532975368	 0.120933
H	-1.6212654438	-1.1422395798	-1.7584422137	 0.150337
H	-0.8355113711	-2.8583214462	 0.3809135216	 0.130093
