17
gdb 36622	5.48032	0.77374	0.74065	2.517	73.65	-0.2386	0.0167	0.2552	1488.831	0.135773	-417.952513	-417.944093	-417.943149	-417.986527	30.759	
N	 0.0753195702	-1.1968715853	-0.1241452256	-0.294114
C	 0.0391894372	-0.0425564224	-0.1317411652	 0.250737
C	-0.014730727	 1.4219285869	-0.1112329221	-0.278771
N	 1.2879240293	 1.9880888189	 0.2398592715	-0.386527
C	 1.3481768032	 3.401856893	 0.1788045826	 0.291764
C	 1.5471586586	 4.1213151038	-1.1444686432	-0.318856
C	 2.5328945406	 4.3170417329	-0.0337202609	 0.030228
O	 2.0513819091	 5.2817290072	 0.9032995602	-0.279408
C	 0.9204610395	 4.4338452601	 1.2360363887	-0.133225
H	-0.28385783	 1.7765107373	-1.1127293794	 0.16466
H	-0.8378898658	 1.7194448346	 0.5604570273	 0.139624
H	 1.6036897149	 1.6322364902	 1.1359311927	 0.236513
H	 1.8822324947	 3.4673390368	-1.9431935485	 0.128234
H	 0.9015886823	 4.9435691076	-1.4397555278	 0.119189
H	 3.6000032555	 4.1401629182	-0.0917620268	 0.118374
H	-0.0401223353	 4.9471000815	 1.109717484	 0.107116
H	 1.010073783	 4.0596339688	 2.2641842525	 0.104462
