20
gdb 117806	2.56539	0.96969	0.84537	3.5787	75.5	-0.2522	0.0352	0.2874	1441.8876	0.170368	-436.456803	-436.445999	-436.445055	-436.492626	38.709	
N	-0.0628121118	 1.4330016856	 0.0285938707	-0.521152
C	 0.0416859841	-0.0235297988	 0.0142611286	-0.182427
C	 0.8241378092	-0.5134249679	 1.2687161681	 0.073084
N	 0.2526002291	-0.0114040898	 2.5234806036	-0.519135
C	 0.8763540755	-2.0533184356	 1.2847793177	-0.20467
C	 1.6777789166	-2.6498665656	 2.4374611999	-0.091893
O	 1.5963123476	-4.0615334065	 2.2995948414	-0.422789
C	 2.1991668498	 0.0296620353	 1.1517268516	 0.321726
N	 3.2559374499	 0.4739277552	 1.0030766077	-0.360572
H	 0.8136189818	 1.8522833838	-0.2676543567	 0.248965
H	-0.7759397543	 1.7467246255	-0.6195390834	 0.238776
H	-0.967980415	-0.4433064911	 0.0846944099	 0.104595
H	 0.5112432908	-0.4396137366	-0.891120777	 0.101695
H	 0.0031724092	 0.9649181505	 2.3725953617	 0.2481
H	-0.6180676047	-0.5083114592	 2.6965802151	 0.227851
H	-0.1541787349	-2.425946504	 1.3395463479	 0.107794
H	 1.2948811588	-2.4150327853	 0.3401164448	 0.122976
H	 2.7193078132	-2.2997623612	 2.3840563992	 0.110658
H	 1.265365474	-2.3101840984	 3.3969078504	 0.107251
H	 2.113550921	-4.4600763959	 3.0052817188	 0.289167
