18
gdb 80101	2.56623	1.49291	1.23181	4.4383	81.87	-0.2511	-0.0041	0.247	1080.2335	0.148795	-364.832875	-364.824854	-364.823909	-364.865154	31.088	
C	-0.1088378294	 1.5377219546	-0.0033969587	-0.42436
C	 0.0555513808	 0.0371023611	 0.0294736919	-0.046369
C	 1.3515993641	-0.6987889188	-0.2447238047	-0.13228
C	 2.6274942381	 0.0589689487	-0.1130874978	-0.073076
C	 2.8249961456	 0.5074422295	 1.1283609608	-0.076898
C	 1.7257204737	 0.082444152	 2.0759688573	-0.340756
C	 0.7492861584	-0.6942706365	 1.1757580796	 0.16303
C	 0.1135451514	-1.8595895103	 1.7152081614	 0.203739
N	-0.4018089621	-2.7957922803	 2.1606725842	-0.354374
H	 0.8090718714	 2.0588032506	 0.2749634233	 0.130351
H	-0.3854883826	 1.8631993952	-1.0117024266	 0.12661
H	-0.9053215191	 1.8535580226	 0.6783768932	 0.128469
H	-0.8164337876	-0.5045781021	-0.327799372	 0.110894
H	 1.3103216833	-1.589398942	-0.8619767332	 0.111758
H	 3.2860747042	 0.2309296625	-0.9562688426	 0.107534
H	 3.6556685522	 1.1246596268	 1.4505187568	 0.10658
H	 2.105348076	-0.5595262804	 2.8792601598	 0.134138
H	 1.2426302517	 0.9379133667	 2.5647859972	 0.125009
