12
gdb 1060	7.6326	2.07474	1.648	2.6712	51.28	-0.2485	-0.0038	0.2447	698.6762	0.09107	-360.53729	-360.530993	-360.530048	-360.568252	21.646	
O	 0.3316048718	 0.9964852389	-0.6890580602	-0.420317
C	-0.0048856519	 0.0756442379	 0.31676635	-0.136396
C	-1.4020944883	-0.4246695971	 0.1328932273	 0.372799
N	-2.2105084512	-0.0730136055	-0.8149258291	-0.326449
C	-3.3738492481	-0.7958878256	-0.5661403279	-0.107639
C	-3.189720697	-1.5525278187	 0.5376694645	-0.042655
O	-1.9180756283	-1.3217376861	 0.9997570475	-0.172505
H	-0.4426694639	 1.0788933561	-1.2626399355	 0.302719
H	 0.6889392827	-0.7795543901	 0.3070734696	 0.122915
H	 0.0846181325	 0.5388679926	 1.3118760501	 0.122908
H	-4.2433119414	-0.7130916198	-1.1978932931	 0.132743
H	-3.785234947	-2.2521445126	 1.0974935168	 0.151877
