21
gdb 120280	3.06542	0.99582	0.874	1.0279	77.91	-0.2529	0.0658	0.3187	1391.3235	0.182178	-424.185583	-424.176158	-424.175213	-424.220044	35.338	
O	-0.0190254462	 1.4703244792	 0.1537186463	-0.424273
C	 0.0309130489	 0.0612216109	-0.0301319333	-0.079427
C	-1.3829846822	-0.4812791385	 0.147617586	-0.190312
C	-1.454069078	-1.9989831447	 0.0121763812	-0.046473
C	-2.8187672021	-2.6953232945	 0.1230528475	-0.061641
C	-3.7227886979	-2.2923194892	-1.0030366811	-0.299749
C	-2.6534234604	-3.3218899599	-1.2675065143	-0.082389
C	-1.2839746941	-2.6642102698	-1.4162782547	 0.114361
O	-1.0329587794	-1.8535706748	-2.5435046297	-0.427377
H	 0.8539228817	 1.8264325632	-0.0345875388	 0.283688
H	 0.3973363694	-0.2009311159	-1.0324971022	 0.107862
H	 0.7038313389	-0.4101240514	 0.7063335955	 0.076526
H	-1.7535706254	-0.1825271879	 1.1360865658	 0.104641
H	-2.0299507001	 0.0137059413	-0.5853690677	 0.091291
H	-0.7366745201	-2.4557932148	 0.7029165459	 0.069726
H	-3.203608388	-3.1639409078	 1.0204887501	 0.087384
H	-4.7305399866	-2.6923768184	-0.9599255996	 0.116938
H	-3.6793974811	-1.2922933408	-1.4290049341	 0.099848
H	-2.9075157124	-4.3206100763	-1.6018837518	 0.086798
H	-0.4755074853	-3.3989417715	-1.403217888	 0.090263
H	-1.8348193097	-1.3583767783	-2.7401783231	 0.282314
