14
gdb 4298	4.11458	1.86264	1.2924	1.6587	69.13	-0.2332	-0.0504	0.1828	898.3822	0.108346	-378.764992	-378.758118	-378.757174	-378.796092	25.551	
C	 0.0336725556	 1.5003275753	-0.002841675	-0.466252
C	-0.0407447069	 0.0059551006	 0.0158725603	 0.309117
C	-1.1882813213	-0.693262519	-0.1181438854	-0.201161
C	-1.1894354371	-2.1380297202	-0.0909762995	 0.388932
N	-2.210897241	-2.8762281939	-0.2080575521	-0.535055
O	 0.088408601	-2.7107289008	 0.0837844135	-0.220583
C	 1.1642924537	-1.9138846152	 0.2066952977	 0.136208
N	 1.1917008634	-0.6405360747	 0.1861479417	-0.326394
H	 0.6952113873	 1.8328319425	-0.8102887159	 0.146047
H	-0.9505149043	 1.9530368863	-0.1373137802	 0.129113
H	 0.4723694411	 1.8658102924	 0.9320980302	 0.146044
H	-2.1488841166	-0.2128610962	-0.2504574634	 0.123298
H	-1.9596819557	-3.8633658235	-0.1572120916	 0.225551
H	 2.0696922608	-2.5009083435	 0.3338991698	 0.145137
