21
gdb 7349	3.94138	1.11392	0.94555	1.2476	76.61	-0.2565	0.0364	0.2929	1324.5158	0.186987	-366.287279	-366.277329	-366.276385	-366.322431	35.508	
C	-0.1754538778	 1.4532123434	 0.2073688472	-0.389924
C	 0.0153701936	-0.0402597557	 0.0182054185	-0.027082
O	-1.2867044806	-0.6431985346	 0.001316952	-0.251627
C	-1.3384206465	-1.9833958479	-0.1514323177	 0.40206
N	-0.2759445701	-2.6655477812	-0.2909447845	-0.538004
C	-2.7881834907	-2.4465676241	-0.110367469	-0.043749
C	-2.9622293541	-3.893162678	-0.5787519043	-0.412708
C	-3.372198386	-2.2320377715	 1.2995115953	-0.386011
H	 0.7972838927	 1.9538605624	 0.2242725215	 0.118951
H	-0.767460545	 1.8782188837	-0.6083955042	 0.125209
H	-0.6884874956	 1.6659638341	 1.149836394	 0.124402
H	 0.529782323	-0.2733167058	-0.9200799089	 0.117391
H	 0.6065455524	-0.4852267163	 0.8255882613	 0.116743
H	-0.4925608695	-3.6536843114	-0.3953056521	 0.219769
H	-3.3325342056	-1.786552487	-0.7975709135	 0.098172
H	-2.4697290834	-4.5964488709	 0.1025787811	 0.120755
H	-4.0240872054	-4.1552514326	-0.603549873	 0.117691
H	-2.5538142549	-4.046390883	-1.5822321276	 0.123487
H	-4.4357755041	-2.4892523805	 1.316547504	 0.113138
H	-2.8598047384	-2.8661316886	 2.0314549539	 0.119119
H	-3.2617978139	-1.1917194548	 1.6122729059	 0.132219
