23
gdb 122522	4.29805	0.55782	0.54189	2.0991	83.53	-0.2611	0.0799	0.341	2146.1025	0.203873	-425.408822	-425.397993	-425.397049	-425.446222	38.327	
C	-0.466489179	 1.4924423639	 0.3960004346	-0.38053
C	 0.0751725403	 0.1085725245	 0.0283249713	-0.167767
C	 0.7379382966	-0.6087913369	 1.2085177152	-0.152797
C	 1.281362189	-1.9985305831	 0.8466523534	-0.235118
C	 1.9318303786	-2.6736157399	 2.030715445	 0.064497
O	 1.070522046	-3.2067405039	 3.0470273131	-0.274341
C	 1.918934091	-4.1167969231	 2.3235443397	 0.027471
C	 1.1966165302	-5.1690697716	 1.519748979	-0.084895
O	 0.6026823914	-6.132406689	 2.3752207678	-0.419237
H	 0.3345450111	 2.1492781623	 0.7531071332	 0.114077
H	-0.9369040547	 1.9790289573	-0.4640600615	 0.112131
H	-1.2162073443	 1.424791063	 1.1920172967	 0.116323
H	-0.741962126	-0.5137994259	-0.3601027437	 0.096391
H	 0.7991359166	 0.2031190434	-0.7921876951	 0.093688
H	 1.5563164934	 0.0117671343	 1.599591951	 0.092716
H	 0.0168114738	-0.7150122152	 2.0288338307	 0.11182
H	 0.4679948025	-2.618352663	 0.4574501444	 0.104148
H	 2.0267484472	-1.9084893899	 0.0444692808	 0.100566
H	 2.7767315074	-2.1150105198	 2.4429269757	 0.087729
H	 2.737898224	-4.5148013518	 2.92627091	 0.095274
H	 0.4502913447	-4.7081537307	 0.8591986384	 0.093139
H	 1.9106367246	-5.7141314918	 0.8923970115	 0.111873
H	 0.0286621154	-5.646712443	 2.9786384987	 0.292841
