13
gdb 23929	9.25398	0.69014	0.64224	1.364	101.16	-0.2147	-0.0475	0.1672	1623.388	0.088869	-382.267912	-382.260206	-382.259261	-382.300611	28.518	
C	 0.1417949551	-3.7391535505	-0.0203527893	-0.604346
C	 0.0831201728	-2.5316582665	-0.0128046045	 0.25807
C	 0.0178298962	-1.177418906	-0.0043553229	-0.006286
C	-0.0518662599	 0.0353377703	 0.0033602358	 0.337488
C	-0.1337363967	 1.4301799132	 0.012339007	 0.086005
C	-1.1994948989	 2.295020403	 0.0320530505	-0.297021
C	-0.6563187712	 3.6106734865	 0.0318617221	-0.15819
C	 0.6971898616	 3.4576065127	 0.0121710786	-0.027378
O	 1.0372568977	 2.1498466972	 0.0001063012	-0.166808
H	 0.1934605662	-4.7995876597	-0.0269767537	 0.19298
H	-2.2389231101	 2.0091045673	 0.0449238205	 0.123894
H	-1.1975513525	 4.5433149968	 0.0446258798	 0.12131
H	 1.5206307598	 4.1530078659	 0.0046156849	 0.140281
