19
gdb 90514	3.12754	1.07742	0.9923	1.9768	80.93	-0.2482	0.0592	0.3074	1267.0531	0.158415	-385.819634	-385.810856	-385.809912	-385.85329	33.854	
O	 0.1296104829	 1.3973579059	-0.0955528325	-0.424689
C	 0.0657969201	 0.0063118487	 0.1544041437	 0.114286
C	 0.0619440156	-0.519699059	 1.6331740467	-0.287703
C	-1.2752403955	-1.2100409282	 1.3450878879	-0.055549
C	-2.3288434451	-0.2241089114	 0.9418183421	 0.005114
C	-2.5099756696	 1.1767083126	 1.5233636331	-0.393558
C	-3.1787052449	 1.1543761699	 2.8206342024	 0.317396
C	-3.7319994749	 1.1095164273	 3.8872022761	-0.464826
C	-1.3008365894	-0.6217588909	-0.0843057662	-0.110113
H	 1.0356682218	 1.6889442097	 0.0489846074	 0.283822
H	 0.8316427477	-0.5225581342	-0.4280817629	 0.076764
H	 0.8812916232	-1.2140269739	 1.8317078009	 0.100276
H	 0.0498913954	 0.2439462964	 2.4163585984	 0.106056
H	-1.5269293447	-2.2169813391	 1.653568476	 0.087939
H	-3.2819817653	-0.71387067	 0.7529453926	 0.095924
H	-1.5471152578	 1.6873628426	 1.5989247026	 0.145787
H	-3.0999281857	 1.7752344253	 0.8172222919	 0.128921
H	-4.2191926276	 1.0823717946	 4.8299663968	 0.190201
H	-1.5951935661	-1.0921296865	-1.0152416469	 0.083952
