16
gdb 227	4.50357	2.67369	2.67044	0.1987	52.67	-0.2619	0.0727	0.3346	609.3369	0.139933	-308.769557	-308.761514	-308.76057	-308.800675	28.879	
C	-0.0229371371	 1.5507442153	 0.0200417094	-0.411142
C	 0.0332807549	 0.0186038165	 0.0202046907	 0.353873
C	 0.7485072128	-0.5134539483	 1.2675962434	-0.411005
O	-1.2859715519	-0.5304047969	-0.0722391608	-0.471411
C	 0.7157060889	-0.4960373752	-1.2533382211	-0.081402
O	 2.0504215999	-0.0132491805	-1.2774644666	-0.422186
H	 0.9824993116	 1.9749727784	-0.0362850322	 0.13431
H	-0.6014552312	 1.9053144539	-0.8382240119	 0.115129
H	-0.5021304435	 1.920909825	 0.9338741093	 0.097164
H	 0.2670450315	-0.1400183482	 2.1789010566	 0.097129
H	 0.7119687856	-1.6068028955	 1.283944404	 0.115147
H	 1.7946802174	-0.1980832857	 1.2782083998	 0.134312
H	-1.7757384841	-0.2425955729	 0.7048607595	 0.275473
H	 0.6804666669	-1.5954658976	-1.2472401413	 0.091738
H	 0.1401205137	-0.1455734151	-2.122743293	 0.09171
H	 2.4724180746	-0.3363552932	-2.077888056	 0.291161
