18
gdb 81015	2.36314	1.85909	1.67513	1.7804	70.68	-0.2418	0.0078	0.2495	929.0122	0.148713	-439.086138	-439.078476	-439.077532	-439.117632	30.748	
C	 0.0579078403	 1.531762663	 0.1040897037	-0.484365
C	-0.0301210465	 0.0376900544	-0.0434678995	 0.374983
C	 0.2244537094	-0.705967666	-1.379779706	-0.284037
C	-0.6487256526	-1.8495857106	-0.7877063266	-0.058499
N	 0.1500608621	-2.6309053245	 0.1682101432	-0.270428
C	 0.8300783355	-1.899417738	 0.9553234375	 0.078539
O	 0.8435822581	-0.550678562	 0.964984102	-0.258002
C	-1.3935654537	-0.7298058495	 0.0015685919	 0.121756
O	-2.0121969556	-1.003561466	 1.2182128867	-0.441211
H	 1.0881169412	 1.8781128888	-0.024015218	 0.129429
H	-0.5701153072	 2.0194658233	-0.6467237579	 0.120921
H	-0.2869212393	 1.8345929159	 1.0973829408	 0.139976
H	-0.260773164	-0.1997111286	-2.2167192342	 0.111623
H	 1.2586112834	-0.9497080953	-1.6275244239	 0.116332
H	-1.2053459254	-2.5125473769	-1.4486692391	 0.079973
H	 1.4826976594	-2.3156540772	 1.7192827055	 0.133338
H	-2.1165628156	-0.2143869207	-0.6365233035	 0.095075
H	-1.5423316793	-1.7404361402	 1.6279537075	 0.294597
