21
gdb 41823	2.23746	1.98599	1.4582	1.509	77.09	-0.2387	0.0763	0.315	997.3264	0.186246	-424.237865	-424.230447	-424.229503	-424.269607	30.188	
C	 0.1684210228	 1.6164147821	 0.1708695563	-0.08061
O	 1.4456741006	 2.01291736	-0.3265972351	-0.278819
C	 2.0757027342	 0.9189526036	-1.0101484422	 0.122984
C	 0.9692195658	-0.135482029	-1.1912305768	-0.280962
C	 0.0897214163	 0.0869682501	 0.0446027758	 0.109746
O	 0.5016845951	-0.5706186028	 1.2375653095	-0.276242
C	 1.8349190721	-1.0374483709	 1.3807653501	-0.066175
C	 2.9320239389	 0.024920602	 1.2447208282	-0.208902
C	 3.2770353835	 0.4237423514	-0.1968648395	-0.207567
H	 0.0655573641	 1.9313622475	 1.2139227954	 0.109796
H	-0.6262767239	 2.0933242389	-0.4228305461	 0.08808
H	 2.4287872087	 1.2908368784	-1.9795392043	 0.072082
H	 0.3753762725	 0.0922979342	-2.0817472524	 0.107312
H	 1.3422040607	-1.1558220186	-1.2947977441	 0.110859
H	-0.942714209	-0.2365498331	-0.1210749212	 0.081896
H	 1.8549169882	-1.4524091318	 2.3933807883	 0.107259
H	 2.0363320244	-1.8742451057	 0.6922718882	 0.084121
H	 2.6292452622	 0.9123756192	 1.8109325515	 0.118374
H	 3.8369863821	-0.3640752598	 1.727013197	 0.094211
H	 3.7280617817	-0.4266440388	-0.7266074356	 0.088811
H	 4.032659329	 1.217087813	-0.1763820131	 0.103745
