13
gdb 22036	3.93629	1.11539	0.86912	1.5935	69.44	-0.1943	-0.0386	0.1557	1188.8522	0.089171	-493.984916	-493.977273	-493.976329	-494.017154	28.492	
O	-0.1418275353	 1.3598836732	 0.1147134653	-0.404378
N	 0.0575159362	-0.0381975308	 0.0952770319	-0.261413
C	-1.0659535513	-0.66413638	-0.0466512998	 0.345484
C	-2.3865867082	-0.0371558847	-0.1732716957	-0.036507
N	-3.50399711	-0.6720241793	-0.3145651012	-0.193738
N	-3.4430187249	-2.0239492476	-0.3472447265	-0.303068
C	-2.27102311	-2.717235272	-0.2395219973	 0.423375
F	-2.438505188	-4.0302512955	-0.29677852	-0.05458
C	-1.08206551	-2.1133362265	-0.0913376246	-0.391609
H	 0.7569395108	 1.6851379556	 0.2230904597	 0.306125
H	-2.4603386512	 1.0414813148	-0.1498259954	 0.154527
H	-4.3191120568	-2.5065983442	-0.4587339922	 0.283627
H	-0.1701919813	-2.6868932229	-0.0083339242	 0.132155
