15
gdb 34357	3.00692	1.62502	1.32619	2.8694	69.28	-0.2447	-0.006	0.2387	953.31	0.113393	-416.73324	-416.726215	-416.725271	-416.764647	27.413	
N	 0.0129078887	-1.1516577361	-0.0741335026	-0.333003
C	 0.0252949074	 0.0049496071	-0.0387349657	 0.182243
C	 0.0270575807	 1.4469540597	 0.0010231552	 0.201589
N	-0.4451095367	 2.1884933223	-1.1925071467	-0.34513
C	 0.8429533288	 2.9441404322	-1.2815057588	-0.177835
C	 1.3517609182	 2.2824802071	 0.0299399711	-0.145882
C	 0.8950471383	 2.8889127604	 1.3776276412	 0.022449
O	-0.375921732	 3.5095702592	 1.1750032254	-0.214468
C	-0.3562194255	 2.1072491822	 1.3789625128	-0.020717
H	-0.6260842659	 1.5856259825	-1.986487093	 0.236668
H	 1.4557148224	 2.6830407433	-2.150089476	 0.111756
H	 0.698941249	 4.0264657104	-1.2455020717	 0.127126
H	 2.3216605375	 1.7897038937	 0.0310690261	 0.110904
H	 1.5059912464	 3.2561188718	 2.1930788964	 0.119573
H	-0.9667563373	 1.6937583641	 2.1732504464	 0.124725
