17
gdb 24095	6.49766	0.7055	0.667	5.998	79.93	-0.217	0.0324	0.2495	1611.1128	0.137936	-380.927111	-380.918692	-380.917748	-380.961381	30.666	
N	-0.0101707484	-1.2038785781	 0.0218700472	-0.308756
C	-0.0209359088	-0.0490072566	 0.0686534045	 0.252182
C	-0.0052558275	 1.4112310557	 0.1202186872	-0.322964
C	 1.4103857146	 2.0040023876	-0.1049736495	-0.32421
C	 1.4087526983	 3.5020635696	-0.0389993072	 0.278182
C	 1.5035166256	 4.3666011162	-1.1083236396	-0.183173
N	 1.4381614864	 5.6489374471	-0.6274114865	-0.229312
C	 1.3032317094	 5.626439015	 0.7366855144	-0.069235
C	 1.2801890414	 4.3105575673	 1.1318501423	-0.244788
H	-0.693796258	 1.7998479759	-0.6377454069	 0.151869
H	-0.3952003223	 1.7335726813	 1.091589325	 0.153863
H	 2.0853948298	 1.5831218638	 0.648228632	 0.125524
H	 1.7801708471	 1.6676654337	-1.0785046819	 0.120259
H	 1.6184949669	 4.1701676848	-2.162697663	 0.11992
H	 1.4983935022	 6.4797138119	-1.1891102469	 0.264668
H	 1.2420844766	 6.5403451096	 1.3051608259	 0.122401
H	 1.1918259569	 3.9588912654	 2.1491634629	 0.09357
