16
gdb 16956	3.46192	2.28841	2.06496	1.9354	63.09	-0.2412	0.0135	0.2547	731.1691	0.132625	-383.7293	-383.723018	-383.722074	-383.759385	25.493	
O	-0.0357500047	 1.4430824858	-0.0517422485	-0.436905
C	 0.0191153863	 0.0321961661	 0.0376900134	 0.129403
C	 0.5786307704	-0.5461037407	 1.3749797069	-0.262065
C	-0.6576510183	-1.3689778156	 1.8669972875	 0.022133
O	-1.1782619045	-1.8467935497	 0.6152314839	-0.250413
C	-1.4292764989	-0.5576786068	 0.0482261405	-0.004247
C	-2.194868707	 0.1507881846	 1.1584060808	-0.055815
C	-1.7211959208	-0.365478998	 2.2919844968	-0.077543
H	 0.8639918487	 1.7762471387	-0.1154797951	 0.285899
H	 0.5628071751	-0.3909568846	-0.8163379177	 0.075155
H	 1.4340772675	-1.2040173555	 1.2034264235	 0.101193
H	 0.8692378971	 0.2476180569	 2.0670272494	 0.100513
H	-0.444116451	-2.2000422168	 2.53797134	 0.079027
H	-1.9047997133	-0.6428178467	-0.9274710883	 0.080161
H	-2.888430005	 0.9672933615	 1.020257326	 0.110899
H	-1.9337784817	-0.0741236492	 3.3115682411	 0.102606
