17
gdb 124923	2.3146	1.84707	1.04043	5.3873	82.08	-0.2154	-0.0456	0.1698	1117.6574	0.136221	-414.180266	-414.171448	-414.170504	-414.214174	32.014	
C	 0.1071364323	 1.5364988616	 0.1201428312	-0.500545
C	-0.0652572735	 0.0467385203	 0.0649603223	 0.326339
C	-1.2141581093	-0.6612153994	-0.0437651232	 0.125038
C	-2.5949095398	-0.0892007881	-0.1346548586	-0.485087
C	-1.1009167031	-2.1195643335	-0.0758193339	 0.321256
N	-2.1384439157	-2.8651160505	-0.177250835	-0.518067
N	 0.19752616	-2.7085661798	 0.0084954639	-0.273668
N	 1.2386768092	-2.0056177978	 0.1087025347	-0.041646
N	 1.1205508214	-0.6638050585	 0.1369436459	-0.304763
H	 0.7350288951	 1.8850143994	-0.7084990168	 0.145276
H	-0.8475352164	 2.0552232722	 0.060677694	 0.155336
H	 0.598435697	 1.8354816101	 1.0537337808	 0.145288
H	-3.0770422356	-0.4309777761	-1.0565655265	 0.152345
H	-3.211938914	-0.4805108049	 0.6810250953	 0.152366
H	-2.6150853266	 1.0009603383	-0.1050824624	 0.108813
H	-1.838316168	-3.8425487113	-0.1812329439	 0.21892
H	 2.0073552769	-0.193028652	 0.2185919522	 0.272798
