22
gdb 102313	2.4093	0.91636	0.77519	3.4792	83.88	-0.2847	0.0182	0.3029	1594.6402	0.191433	-404.361198	-404.350101	-404.349156	-404.39824	39.025	
C	 0.1389674242	 1.2634224862	 0.3714957171	-0.248396
O	-0.0142943645	-0.0463553934	-0.1467879779	-0.228713
C	-1.3172393546	-0.5690520789	-0.0279894874	-0.038533
C	-1.3835512592	-1.88916967	-0.8088101839	-0.197139
C	-1.0863624138	-1.7471785496	-2.312695599	 0.034219
C	-0.9745399537	-3.1389253993	-2.9497697455	-0.396688
C	-2.1382022292	-0.8999040457	-3.0422308462	-0.392168
C	-1.6771789967	-0.7905862092	 1.3935335563	 0.27442
N	-1.9514396385	-0.9562394656	 2.5039240905	-0.326408
H	 1.1722539737	 1.5579012294	 0.179070343	 0.138453
H	-0.5371010012	 1.9733191274	-0.1277406971	 0.111952
H	-0.0498671399	 1.2961407889	 1.4527479807	 0.136047
H	-2.0521095075	 0.1467631207	-0.43078205	 0.112019
H	-0.6633627257	-2.5769243843	-0.3527233145	 0.121683
H	-2.3795603701	-2.324010024	-0.6605178395	 0.113703
H	-0.1157429656	-1.2469361856	-2.4074459063	 0.097218
H	-0.7244292734	-3.0638059268	-4.0127941258	 0.113879
H	-0.199381754	-3.7403927796	-2.4639436454	 0.115819
H	-1.9212291364	-3.6868307994	-2.8698392312	 0.113946
H	-2.1808487221	 0.1272972453	-2.6664813998	 0.112894
H	-1.9123464728	-0.8423233177	-4.1117198535	 0.117474
H	-3.138545549	-1.3375381987	-2.9382759146	 0.114318
