21
gdb 79340	3.19454	1.4853	1.38465	1.4595	80.88	-0.2253	0.0952	0.3205	1059.5687	0.184258	-387.101806	-387.094016	-387.093071	-387.133472	31.883	
C	-0.0557725287	 1.5533155868	-0.0077613606	-0.413589
C	 0.0163254005	 0.0282953639	-0.0114975233	 0.0223
C	 0.9237065626	-0.566906534	-1.0871216066	-0.16266
C	 2.2789071867	-0.6645582216	-0.4179771146	 0.052294
O	 2.1628578703	-0.1832256841	 0.908550306	-0.262059
C	 0.80786978	-0.5895278096	 1.1732489393	 0.041022
C	 0.8272964163	-2.0903741867	 0.8197024869	-0.281463
C	 1.4422505359	-1.9155235368	-0.568295631	 0.287446
C	 1.8074325192	-3.0690705807	-1.4599995316	-0.502219
H	 0.9414562384	 1.9836732784	 0.1167758099	 0.132918
H	-0.4762522899	 1.9296890488	-0.9462176673	 0.109119
H	-0.6894248904	 1.9165641401	 0.8088099909	 0.107703
H	-0.9911611392	-0.4015893822	-0.0515131021	 0.069191
H	 0.8053226676	-0.3584096851	-2.1429728623	 0.080004
H	 3.2375687579	-0.4857144809	-0.8848420451	 0.09706
H	 0.5264839299	-0.2962226263	 2.1831190219	 0.075365
H	 1.4684447326	-2.6675059043	 1.4933556093	 0.099058
H	-0.1731133523	-2.5336202203	 0.8034838272	 0.09608
H	 0.9221252171	-3.6418778912	-1.7602239389	 0.117319
H	 2.2992959109	-2.7230806945	-2.3753509042	 0.11564
H	 2.4943152946	-3.7585974297	-0.9553775939	 0.11947
