16
gdb 6690	6.07669	0.68895	0.66316	2.1731	71.29	-0.2527	-0.0321	0.2206	1656.3325	0.126751	-383.717729	-383.70809	-383.707146	-383.754377	32.282	
C	 0.0187295839	 1.4819552746	-0.3632759986	-0.386094
C	 0.0734463444	 0.013805311	 0.082796939	-0.018958
O	 0.8669236573	-0.1515312951	 1.2553754915	-0.411692
C	-1.2724417147	-0.5471122982	 0.2523699695	 0.11017
C	-2.3865553026	-0.9687910076	 0.4343474744	-0.008837
C	-3.7122077066	-1.5447458069	 0.60330988	-0.415025
C	-3.8650995639	-2.8791985103	-0.1330113534	 0.17244
O	-4.8709381008	-3.214974252	-0.6950719188	-0.2292
H	 1.0363493458	 1.8644580589	-0.4762145395	 0.127932
H	-0.5100115612	 1.5810474056	-1.3156217171	 0.127613
H	-0.5060078654	 2.0892401145	 0.3814680963	 0.11749
H	 0.6010354754	-0.5660033786	-0.6842527035	 0.121203
H	 0.3837571942	 0.2457980783	 1.9885916007	 0.282391
H	-3.8991857282	-1.7513802715	 1.6685624908	 0.157227
H	-4.5089790854	-0.8741022081	 0.2655102949	 0.155542
H	-2.9635526821	-3.5278043247	-0.093467406	 0.097798
