17
gdb 12081	3.81374	1.64036	1.50466	1.0863	63.89	-0.2289	0.0617	0.2905	893.9988	0.141994	-400.940146	-400.932409	-400.931464	-400.971859	29.861	
O	-0.0639369145	 1.4066516834	-0.0592154803	-0.440966
C	 0.032127287	-0.0152784785	 0.0490101536	-0.14286
C	-1.3961720936	-0.5307759749	-0.0170523528	 0.458742
O	-2.1738643581	 0.0727386983	 0.9932170455	-0.501475
C	-2.1102856336	-0.519496097	-1.4296437224	-0.27946
C	-2.2781539654	-2.0366555172	-1.3017560796	-0.038356
N	-0.9076253917	-2.5934747054	-1.1799081372	-0.343322
C	-1.5973351965	-2.0508737057	 0.0191872473	-0.117464
H	 0.8000619233	 1.7878016099	 0.1179968953	 0.293857
H	 0.6289824491	-0.448198195	-0.7610802524	 0.114289
H	 0.4748371483	-0.3062967748	 1.0136508876	 0.087776
H	-1.9167732406	 1.0044236035	 0.9898183512	 0.285581
H	-3.0532830242	 0.0234291595	-1.3520973407	 0.109539
H	-1.5342419475	-0.1732337506	-2.2908758431	 0.100134
H	-3.0915248548	-2.6519687679	-1.6657057289	 0.091923
H	-0.9966884622	-3.6082961522	-1.1324685682	 0.229395
H	-1.7687899949	-2.6515082053	 0.903991105	 0.092666
