17
gdb 10691	2.83532	1.90394	1.3328	2.7014	70.43	-0.2405	0.0391	0.2796	950.2089	0.140025	-363.798313	-363.789515	-363.788571	-363.831183	32.78	
C	-0.2933929243	 1.5184363179	-0.1276818076	-0.416142
C	 0.1052683198	 0.0475498044	-0.0036720663	 0.030578
O	-1.0319125614	-0.7770186125	 0.2359540899	-0.444091
C	 0.7706347121	-0.47649342	-1.2828413281	 0.130025
C	 0.6360185256	-1.922043752	-1.6317847575	-0.276257
N	-0.1027663338	-0.9090746587	-2.3995543118	-0.349258
C	 1.9759064062	 0.2256748495	-1.6497247859	 0.289431
C	 2.9949456574	 0.807878313	-1.9116003577	-0.409583
H	 0.5824813607	 2.1406822769	-0.3254922303	 0.144084
H	-1.0080785691	 1.6546036658	-0.9453277909	 0.129671
H	-0.7552752454	 1.8704319597	 0.8021057163	 0.105556
H	 0.8299600766	-0.0634946694	 0.8178482437	 0.085148
H	-1.5833361425	-0.341305533	 0.8918728256	 0.290971
H	 1.44539036	-2.403806676	-2.1711865907	 0.123543
H	 0.0849916486	-2.5477649605	-0.9381801308	 0.134109
H	-1.0581530328	-0.8897175187	-2.0439266712	 0.240853
H	 3.8913521624	 1.3186299735	-2.1628581367	 0.191364
