16
gdb 91227	2.11485	1.65503	1.58236	2.6616	64.98	-0.2445	0.011	0.2555	964.7165	0.123533	-475.017731	-475.009349	-475.008404	-475.050657	31.48	
O	 0.137908987	 1.4178049489	 0.0992741456	-0.422499
C	 0.0492333493	 0.0170305107	 0.0847896416	 0.089236
C	 0.2597592581	-0.6286001283	 1.4791082514	-0.251767
C	-1.1302226143	-1.304528734	 1.3819974587	-0.067258
N	-2.2375165642	-0.4650358265	 1.849297191	-0.323955
C	-2.4733730654	 0.1753177397	 0.6466844453	 0.346363
O	-3.2594152192	 1.0169996414	 0.3031410263	-0.363408
C	-1.3598718843	-0.6395752859	-0.0465695956	 0.215001
O	-1.5859396853	-1.2461352316	-1.2685745673	-0.473439
H	-0.1760278563	 1.7543270538	-0.747324139	 0.295531
H	 0.7005145076	-0.4329852934	-0.6783502114	 0.088262
H	 1.0981726935	-1.3266896005	 1.5120754098	 0.113226
H	 0.3589783484	 0.0965197883	 2.2890175489	 0.114222
H	-1.2358180672	-2.3694815929	 1.5855431042	 0.092629
H	-2.4148053842	-0.1115549353	 2.7802371966	 0.250127
H	-2.5315912535	-1.3989001942	-1.3737086459	 0.297731
