22
gdb 88674	3.05954	0.96324	0.87643	2.111	83.77	-0.2295	0.0793	0.3088	1446.9627	0.19247	-404.310097	-404.300071	-404.299127	-404.345167	37.874	
C	-0.2531478189	 1.5377730503	 0.0412347165	-0.434123
C	-0.0505914659	 0.0359199821	 0.0568498859	 0.325283
C	-1.2090258859	-0.7537621129	-0.5216491677	-0.456473
N	 1.3204819187	-0.4128561398	-0.2632362955	-0.382352
C	 0.7877299614	-0.6260348366	 1.0992369025	-0.06377
C	 1.4807252021	 0.0929023981	 2.2123949307	-0.01644
C	 0.869417089	 0.1112202283	 3.6039872566	-0.339829
C	 2.1185665423	-0.6859662333	 3.3304481179	 0.089125
O	 2.0372912136	-2.0812869322	 3.2555863688	-0.416548
H	 0.632958181	 2.0642401148	 0.3991255087	 0.123293
H	-0.4574647025	 1.8847490325	-0.9782326946	 0.11245
H	-1.1045774223	 1.8234308431	 0.6692351446	 0.110865
H	-1.361744453	-0.5027597091	-1.5785342417	 0.11711
H	-1.0311338965	-1.8319106093	-0.4511140911	 0.110755
H	-2.1439411168	-0.5326780353	 0.0058769147	 0.118675
H	 1.2972475312	-1.2839574646	-0.7882830299	 0.222326
H	 0.4984177076	-1.641242237	 1.3606460516	 0.086243
H	 2.0139475076	 0.985051549	 1.9036688735	 0.097162
H	 0.9339304789	 1.0163580961	 4.1981769521	 0.110266
H	-0.0441752403	-0.4594219734	 3.7404485879	 0.111083
H	 3.0612854465	-0.3084450845	 3.7259594912	 0.086586
H	 1.8814923724	-2.4160767664	 4.1445204574	 0.288313
