23
gdb 84986	2.41271	1.30002	1.0676	2.6796	85.47	-0.2318	-0.0116	0.2202	1279.9358	0.204408	-388.343937	-388.334046	-388.333101	-388.378204	37.886	
C	-0.1197802874	 1.5416493838	-0.0139867616	-0.404385
C	 0.0354676482	 0.0228590413	 0.0168118837	 0.022027
C	 0.7696905209	-0.5744862804	-1.1954279043	-0.330073
C	 1.3568875533	-1.8957016904	-0.698658227	 0.393331
O	 1.8079351153	-2.7750615192	-1.3883358413	-0.336525
C	 1.2796843393	-1.9414133178	 0.8451060983	 0.184444
C	 0.1884169399	-2.9687922501	 1.218235526	-0.421725
C	 2.6261743758	-2.3739660611	 1.4360622107	-0.433643
C	 0.8583660514	-0.5030729288	 1.2163724119	-0.25381
H	 0.8583984645	 2.0336333859	-0.0723129429	 0.113417
H	-0.7086104186	 1.8670936708	-0.8779773967	 0.115616
H	-0.6225527897	 1.9059988237	 0.8883637142	 0.114544
H	-0.96624317	-0.4244748998	 0.0639473819	 0.079975
H	 0.1618630897	-0.7185748786	-2.0921733496	 0.123984
H	 1.6161497271	 0.0666934986	-1.4837142833	 0.125064
H	 0.4391443648	-3.9535066996	 0.8137997788	 0.134577
H	 0.1060387782	-3.0500938043	 2.3073457967	 0.115033
H	-0.7947709042	-2.6860975693	 0.8279310456	 0.115401
H	 3.4141230627	-1.6496964045	 1.2040970725	 0.110616
H	 2.5622055887	-2.4648526145	 2.5256488912	 0.109909
H	 2.9266081343	-3.3411007586	 1.0232577988	 0.134649
H	 1.7519609959	 0.1235628757	 1.3386971305	 0.091779
H	 0.30169454	-0.4543569629	 2.1576655861	 0.095794
