19
gdb 110548	3.49588	1.3939	1.35221	0.778	73.35	-0.2263	0.0847	0.311	1035.5104	0.161336	-423.008595	-423.001318	-423.000374	-423.040445	28.941	
C	-0.0718448709	 1.387629165	-0.0241306267	-0.240129
O	 0.1247654359	-0.0066906222	 0.0758360104	-0.251746
C	 0.6876948465	-0.5817109017	-1.0797542775	 0.157708
C	 1.0650544426	-2.0355696608	-0.857065408	-0.15663
C	-0.1722515938	-2.8723439401	-1.1994298018	-0.107821
C	-1.2694914277	-1.8950260914	-1.607177788	-0.223751
C	-0.3141737029	-0.8662270739	-2.2430542737	 0.001068
O	 0.4896942092	-1.6519920341	-3.1346199657	-0.260449
C	 0.9149263828	-2.655993666	-2.2228665442	 0.086262
H	 0.869797828	 1.9125755664	-0.2470483069	 0.108557
H	-0.8052521466	 1.6549916351	-0.7992229908	 0.107242
H	-0.446663822	 1.7304809702	 0.9431548806	 0.128606
H	 1.5370058467	 0.0186456179	-1.439607571	 0.068253
H	 1.8112351853	-2.342773615	-0.1379556888	 0.092312
H	-0.3638812458	-3.83296014	-0.7419051684	 0.089558
H	-1.966308132	-2.3136060696	-2.3382031413	 0.101246
H	-1.8146295931	-1.4794683474	-0.7577633596	 0.116596
H	-0.7395368631	-0.0196422436	-2.7769932053	 0.078485
H	 1.5545886708	-3.4141943789	-2.6508982833	 0.104632
