19
gdb 102836	1.84859	1.27129	0.83314	3.3449	73.32	-0.2755	0.003	0.2785	1391.0773	0.157457	-460.165481	-460.155811	-460.154867	-460.201294	34.205	
O	 0.1988003048	 1.3936991258	-0.0812201944	-0.417527
C	 0.097310886	-0.0078839357	-0.2181652018	-0.065078
C	-1.3343137264	-0.5015635994	 0.0021662317	 0.046545
O	-1.6737212933	-0.0908509327	 1.3519696422	-0.206294
C	-2.3061198356	-0.9615321197	 2.1583565913	 0.172847
O	-2.6469403111	-0.6857225249	 3.2689381991	-0.275054
C	-2.3241326629	 0.0840157136	-0.9706969326	 0.040307
C	-2.6054303981	-0.6365644193	-2.2660803377	-0.270776
C	-3.6608372802	-0.5745816283	-1.1914651648	-0.27997
H	-0.1062970293	 1.6091496506	 0.8079745283	 0.297844
H	 0.4080113159	-0.2511346902	-1.2389341785	 0.119521
H	 0.7683041209	-0.5336348602	 0.47836015	 0.096397
H	-1.3533891201	-1.5994663088	-0.0520722012	 0.081905
H	-2.4600471858	-1.9507860522	 1.6845834232	 0.075781
H	-2.2918465153	 1.1671143891	-1.0123872751	 0.109452
H	-2.7367613052	-0.0400733201	-3.16134288	 0.123965
H	-2.1166618681	-1.5902683713	-2.4390922469	 0.113639
H	-3.8806939691	-1.4884963004	-0.6484248995	 0.111905
H	-4.5230250771	 0.0638523141	-1.3456047233	 0.124591
