15
gdb 27108	3.11372	1.19008	0.89955	3.763	69.56	-0.2291	-0.011	0.2182	1237.5039	0.111299	-457.811723	-457.803271	-457.802327	-457.84627	29.463	
C	 0.1067984399	 1.4443771576	-0.109063416	-0.51034
C	-0.0117563086	-0.043768947	-0.0175738757	 0.134683
C	-0.3129207181	-0.9091386927	-1.0196545392	 0.328573
O	-0.6472652579	-0.6954938832	-2.31928796	-0.214609
C	 0.2627223003	-1.0867139451	-3.2720542566	 0.162235
O	 0.0327927261	-0.9863518268	-4.4324031115	-0.244136
O	-0.3497348824	-2.1981491816	-0.5961973267	-0.169466
C	-0.0549218544	-2.1629171499	 0.7364501493	-0.007243
C	 0.1552323521	-0.8860625555	 1.1403689538	-0.260978
H	 1.1093473019	 1.7851015418	 0.1721752751	 0.134361
H	-0.0948960023	 1.7884252387	-1.1264345364	 0.139279
H	-0.6037661948	 1.9417833427	 0.5600008274	 0.13806
H	 1.1891126522	-1.4809612019	-2.8204350309	 0.106713
H	-0.0339468565	-3.1184141366	 1.2325168685	 0.144805
H	 0.4021248524	-0.5631965705	 2.1401728187	 0.118063
