19
gdb 88094	3.21568	1.28689	1.19699	2.5133	74.94	-0.2242	0.0755	0.2997	1108.209	0.159599	-422.986436	-422.978463	-422.977519	-423.018817	31.579	
O	-0.1457406318	 1.3991436707	-0.0755048365	-0.421711
C	-0.0301866102	 0.0040000304	-0.0440587992	 0.044444
C	-0.3800505723	-0.744653015	 1.2225999658	-0.393067
C	-1.3169486408	-0.75428318	 0.0319084424	 0.332314
C	-2.6508103698	 0.0032323216	 0.0636067664	-0.158447
O	-3.6726244094	-0.970415917	-0.1654474504	-0.261311
C	-3.102250468	-2.074204763	-0.8145042283	 0.124305
C	-2.3036859224	-1.8557681746	-2.0729553152	-0.34104
C	-1.6028277265	-2.0182633134	-0.7291703424	-0.172711
H	 0.5829961845	 1.7720356067	 0.4316490032	 0.289203
H	 0.7634223189	-0.4045338647	-0.6704315435	 0.086849
H	 0.1747735357	-1.6467667312	 1.4618647092	 0.110489
H	-0.676938156	-0.1490310713	 2.080333649	 0.113954
H	-2.8562972079	 0.491436142	 1.0196495556	 0.111717
H	-2.6737070224	 0.7732894941	-0.7185733279	 0.113135
H	-3.6863048701	-2.9760568258	-0.6743500474	 0.100303
H	-2.2365153214	-2.6878121596	-2.7659566884	 0.111447
H	-2.3124607664	-0.8785439726	-2.544064362	 0.122495
H	-0.9967023338	-2.8965556573	-0.5407293304	 0.087633
