18
gdb 42412	4.44788	0.92814	0.82356	2.1844	74.62	-0.2566	0.0317	0.2883	1418.85	0.146768	-439.073239	-439.064417	-439.063472	-439.108513	31.495	
O	-0.0139298849	 0.0809476485	 0.3347008679	-0.386266
C	-0.0043274531	 1.2803353938	 0.2153250394	 0.469592
O	 1.0580304861	 2.0144600085	-0.1927830886	-0.2559
C	 2.2490460516	 1.2827159758	-0.4178382739	 0.16444
C	 3.467013802	 2.1147196411	-0.6428291049	-0.300839
C	 3.3063819598	 1.3233415782	 0.6424268734	-0.27889
N	-1.0617916029	 2.1247420905	 0.5296737878	-0.123283
C	-1.685929016	 3.0129239874	-0.4357679419	-0.223521
C	-2.4113394115	 1.8189037709	 0.108140998	-0.216442
H	 2.0907972042	 0.3691354584	-0.9773050773	 0.119652
H	 4.1858990007	 1.7820238273	-1.3827697666	 0.120128
H	 3.342983677	 3.1896275135	-0.579057671	 0.127872
H	 3.0779316216	 1.8847511534	 1.5409653031	 0.127805
H	 3.9091227655	 0.4359118413	 0.7977900745	 0.122936
H	-1.9210204203	 4.009790514	-0.0746110844	 0.12914
H	-1.3343166002	 2.9663424435	-1.4626916258	 0.134904
H	-2.5437615307	 0.9609954138	-0.5451449699	 0.139522
H	-3.1792285789	 1.9475901501	 0.8649466501	 0.129151
