12
gdb 133345	3.23181	1.41336	0.98352	6.7551	62.03	-0.2504	-0.0705	0.1798	1061.1257	0.076463	-513.915506	-513.90802	-513.907075	-513.947486	28.041	
N	 0.0552887263	 1.3768914743	-0.0806669875	-0.591772
C	-0.0280351574	 0.0233499943	-0.02903728	 0.278078
C	-1.1623706666	-0.7279496147	-0.0104509197	-0.371193
C	-1.1027255234	-2.1671598847	 0.0016807119	 0.460209
O	-2.0218873264	-2.9390448457	 0.0146397021	-0.339476
O	 0.1926653833	-2.7397734376	-0.0004711323	-0.26922
N	 1.3435242776	-1.9926109439	-0.0077338069	-0.119966
C	 1.2120891366	-0.7269114911	-0.0228940238	 0.334423
F	 2.3345799013	-0.0086204771	-0.0252793507	-0.065317
H	 0.9469537989	 1.8136917408	 0.077238497	 0.280226
H	-0.7684897242	 1.9339424412	 0.0690635736	 0.276443
H	-2.1514886761	-0.2876351657	-0.0087798638	 0.127566
