17
gdb 24126	4.95992	1.01935	0.88225	2.8036	74.57	-0.2143	0.0328	0.247	1284.0276	0.1382	-418.026331	-418.01863	-418.017685	-418.059329	28.727	
C	 0.111258112	 1.3136580014	 0.743805826	-0.344164
C	-0.0851340189	-0.0360402745	 0.085432393	 0.090063
C	-1.3433632345	-0.4117812131	-0.5689835458	-0.1805
O	-0.2103855388	-0.010807894	-1.3469283752	-0.247416
C	 1.4273684672	 1.9295121779	 0.3817100714	 0.339377
N	 2.3062161049	 2.4526191998	 1.2101356334	-0.305296
C	 3.3345962791	 2.9075207048	 0.4151854081	-0.093923
C	 3.0733649916	 2.6530840453	-0.9048210587	-0.110241
N	 1.8464220843	 2.0299327669	-0.9145548549	-0.259746
H	-0.7139739145	 1.9745885347	 0.4481175902	 0.115434
H	 0.076221386	 1.2134969232	 1.8320060374	 0.138481
H	 0.5638799732	-0.8335082435	 0.4476357127	 0.109305
H	-1.617917407	-1.4610145196	-0.660749562	 0.123006
H	-2.17731244	 0.2885537124	-0.5636389769	 0.12046
H	 4.2015355011	 3.3899543862	 0.8401856721	 0.103325
H	 3.6240176343	 2.8460251332	-1.8103265732	 0.124296
H	 1.3479510099	 1.6562065789	-1.7070104577	 0.27754
