19
gdb 113259	2.88681	0.8769	0.79899	3.7569	73.15	-0.2724	0.002	0.2744	1480.3798	0.156239	-460.164644	-460.154694	-460.15375	-460.199865	35.614	
C	 0.0905406131	 1.5107110153	-0.4782600062	-0.452995
C	 0.0070870663	 0.0883484132	 0.0237842487	 0.384467
C	 1.2115549909	-0.8027427907	 0.0589585176	-0.3488
C	 0.5469077179	-0.3750436942	 1.3575656039	-0.091975
C	 1.2558550926	 0.5343186104	 2.3366797613	-0.083299
O	 2.0908584188	-0.1927092285	 3.2226673367	-0.410484
O	-1.1668682137	-0.5764263844	-0.4418673268	-0.223266
C	-2.3120232549	-0.3497535841	 0.2368124503	 0.160207
O	-3.360725962	-0.8074831912	-0.103942013	-0.272316
H	 1.0460025671	 1.9701184059	-0.2160013924	 0.128677
H	-0.0061604996	 1.5203512101	-1.5682317328	 0.141977
H	-0.7097974373	 2.1316067814	-0.0615387509	 0.127271
H	 1.0803326576	-1.8269160486	-0.2693386303	 0.137603
H	 2.1647855591	-0.3540752624	-0.2044041799	 0.117001
H	-0.0411936357	-1.1499502913	 1.8416580246	 0.112064
H	 1.8240382439	 1.3093932113	 1.7994931821	 0.087047
H	 0.5307971105	 1.0499948279	 2.9758227758	 0.117979
H	 2.7096705968	-0.7005213431	 2.6868030991	 0.285002
H	-2.1646293714	 0.2853110431	 1.1303252122	 0.083838
