14
gdb 8826	2.97916	1.61647	1.1085	4.291	59.43	-0.2837	-0.0077	0.276	1024.9208	0.106092	-415.895518	-415.886808	-415.885864	-415.929728	29.502	
C	 0.0039776743	 1.4298430264	 0.0621485006	-0.3394
N	-0.1038254108	-0.0197107444	 0.004466561	-0.312965
C	-1.2833218983	-0.6645230391	 0.0081321547	 0.410663
O	-2.382157102	-0.1422517898	 0.0937756011	-0.384145
C	-1.2286413752	-2.2231649604	-0.0524161058	-0.084749
O	-2.519121336	-2.7156531575	-0.2209595555	-0.408953
C	-0.3200967211	-2.6719650604	-1.1244325329	 0.253461
N	 0.4400232061	-2.99089205	-1.934569348	-0.318574
H	 0.37585524	 1.8349269954	-0.8845153541	 0.146097
H	-0.9909982306	 1.8307362982	 0.254330606	 0.177827
H	 0.6786693818	 1.7324660409	 0.8681573843	 0.140807
H	 0.7304430529	-0.5585109721	-0.1723187006	 0.270259
H	-0.7957702809	-2.5708685972	 0.900664558	 0.142521
H	-3.0824182103	-1.9193359202	-0.1791154988	 0.307151
