19
gdb 61951	6.39573	0.58903	0.55926	1.31	84.51	-0.2551	0.0436	0.2987	1921.398	0.154948	-385.821836	-385.811178	-385.810234	-385.858145	38.371	
O	-0.1554868673	 1.3930639093	-0.0188552126	-0.419242
C	-0.0273841571	-0.0206039923	 0.0006134843	 0.126749
C	 0.6698024315	-0.5461236368	-1.260289692	-0.194285
C	-0.0507855175	-0.1046656153	-2.5489376747	-0.361093
C	 0.6358852647	-0.5385788165	-3.7585021727	 0.290757
C	 1.2239585503	-0.9081373354	-4.7397111422	-0.437414
C	 0.6900619909	-0.5139842397	 1.2769608543	-0.398318
C	 0.0343423607	-0.1008640543	 2.5102848063	 0.310889
C	-0.5154166256	 0.2322801922	 3.5252903621	-0.432547
H	 0.7254296543	 1.775553562	 0.0670426728	 0.280991
H	-1.0604216448	-0.387910548	 0.0232929762	 0.102609
H	 1.7058792343	-0.1823883276	-1.2826665008	 0.101195
H	 0.7241646859	-1.6400857632	-1.225283223	 0.110964
H	-1.0751597214	-0.5001214176	-2.5459406514	 0.12999
H	-0.1488754571	 0.9864015556	-2.5392577179	 0.144654
H	 1.7313774778	-1.2278386772	-5.6157056565	 0.192968
H	 0.7617035338	-1.6085880991	 1.2431102661	 0.134449
H	 1.7261113539	-0.1443028384	 1.2631794172	 0.120883
H	-1.0006271074	 0.5311815923	 4.4210723344	 0.195802
