14
gdb 66714	2.85861	1.73057	1.30863	4.5517	71.19	-0.235	-0.0093	0.2257	944.409	0.101078	-395.608378	-395.601139	-395.600195	-395.640048	27.842	
N	 0.0143026111	 1.4319993723	 0.0592275662	-0.631666
C	 0.0474598328	 0.0362479379	 0.0139281981	 0.270615
C	 0.9199910416	-1.0134473533	 0.7731837538	-0.08718
C	-0.2106141454	-1.976098513	 0.7584283986	-0.042592
C	-1.0932291993	-0.9597941089	-0.0059310446	-0.207762
C	-0.0515463586	-1.0152183348	-1.1224152146	 0.2646
C	-0.1641449554	-0.8730189834	-2.5219566237	 0.134267
N	-0.258641063	-0.7069409594	-3.6656480773	-0.353509
N	 0.8094508822	-2.0104051393	-0.3490357742	-0.202312
H	 0.692138688	 1.8736661102	-0.5517641891	 0.255319
H	-0.9035896844	 1.8192935697	-0.1166151484	 0.25308
H	 1.8034126722	-0.9363390208	 1.3943232918	 0.113061
H	-0.4413392989	-2.843243806	 1.3643897678	 0.114125
H	-2.158563783	-0.7901826912	-0.0779062144	 0.119954
