18
gdb 73105	2.84137	1.55428	1.25208	4.9021	71.37	-0.2545	0.0606	0.315	1044.8501	0.148573	-439.140204	-439.132223	-439.131278	-439.172761	30.794	
C	-0.1895318413	 1.5245846528	 0.2375917739	-0.458813
C	 0.1007182837	 0.055199638	 0.0338459057	 0.423713
C	-1.1056559902	-0.9258414512	 0.1327293103	-0.278865
C	-0.5135756474	-1.5035967393	 1.4528220106	-0.233751
C	 0.8105228572	-0.7387205834	 1.1797161138	-0.056337
N	 1.7983244296	-1.4506726658	 0.4109475262	-0.364965
C	 1.9029256705	-1.0301979196	-0.8949056452	 0.456649
O	 2.7015622056	-1.3763999229	-1.7196362977	-0.391676
O	 0.907855422	-0.1173838536	-1.1366055925	-0.279225
H	 0.7407160537	 2.0942194896	 0.3195486794	 0.131389
H	-0.7626870469	 1.9185499302	-0.6071676483	 0.137699
H	-0.775316631	 1.6768299995	 1.1495356334	 0.120446
H	-2.0919195848	-0.4619120129	 0.2011775262	 0.1075
H	-1.1081845621	-1.6373699597	-0.694718668	 0.125296
H	-1.0220540179	-1.1351634973	 2.3475804168	 0.108054
H	-0.4250594369	-2.5893843983	 1.5176580142	 0.110149
H	 1.2451567451	-0.1776504808	 2.0141169737	 0.081667
H	 2.5343649312	-2.0127300954	 0.8022329976	 0.26107
