17
gdb 42922	2.91682	1.32379	1.01632	2.6826	72.91	-0.2371	-0.0293	0.2078	1169.919	0.13505	-421.779267	-421.771377	-421.770433	-421.812412	29.604	
O	 0.2724958858	 0.1009511865	-0.2585815697	-0.295645
C	 0.0598956919	 1.2585833501	-0.0630710298	 0.412111
C	-1.1865260097	 2.1411666207	-0.0782797973	-0.119738
O	-1.1153313955	 2.8818275994	 1.1630695944	-0.233577
C	-0.3216453406	 3.338120563	 0.0742261471	 0.016955
C	 0.9836535239	 2.5191109569	 0.1173895812	-0.170074
C	 1.8668840606	 2.6407102226	 1.3269566013	 0.017746
C	 3.2406244097	 2.0183678568	 1.3214248964	-0.261696
C	 3.0971605663	 3.5181920609	 1.2943735214	-0.277673
H	-2.1631331477	 2.0084011095	-0.5275531779	 0.126395
H	-0.4963040577	 4.3393706749	-0.3003019459	 0.120466
H	 1.5635607485	 2.6259062008	-0.8091299799	 0.100006
H	 1.3236014003	 2.6046002922	 2.2653777439	 0.101596
H	 3.5898359566	 1.5469031539	 2.2328796965	 0.118091
H	 3.5668540987	 1.521291603	 0.4140994242	 0.119458
H	 3.3298148153	 4.0346305527	 0.3685852967	 0.108894
H	 3.3470531936	 4.0785539361	 2.1882618774	 0.116687
