20
gdb 116943	4.77651	0.53509	0.49164	3.0778	85.81	-0.2382	0.0299	0.2681	2252.723	0.168248	-403.165066	-403.153736	-403.152792	-403.206007	38.319	
C	-0.3364341319	 1.4594482302	-0.3051018739	-0.382317
C	-0.213385176	-0.0472349814	-0.5391425789	-0.151278
C	 1.2540544011	-0.5232832524	-0.5373469412	-0.337496
C	 1.388668533	-1.9560775714	-0.772576972	 0.049043
C	 1.4550682778	-3.1395908921	-0.9790418016	 0.139059
C	 1.5546293757	-4.568151088	-1.2242511365	-0.496186
C	 0.6497482785	-5.0677386665	-2.3700797133	 0.424927
N	 1.0033774094	-6.3044063466	-2.8373473204	-0.52701
O	-0.3105750544	-4.4596850646	-2.7840793009	-0.335949
H	 0.0947209416	 1.7497277691	 0.6598100988	 0.112786
H	 0.1851639764	 2.0270639212	-1.0840377861	 0.114408
H	-1.3839836583	 1.7752892184	-0.3094255676	 0.114433
H	-0.763334901	-0.5962716471	 0.2331543261	 0.108332
H	-0.6710723565	-0.3221664421	-1.4953888738	 0.119348
H	 1.8145817631	 0.0298448667	-1.3034158853	 0.123039
H	 1.7197111858	-0.2605512425	 0.4225583471	 0.120843
H	 2.5952194623	-4.8517381294	-1.4316738965	 0.129544
H	 1.2666465082	-5.1328235907	-0.3260085627	 0.155124
H	 1.8804987199	-6.7348826831	-2.6025079097	 0.257228
H	 0.4847826053	-6.6738895275	-3.6174329317	 0.262122
