20
gdb 55741	4.05342	1.01038	0.9317	3.9012	79.51	-0.2233	-0.0172	0.2061	1328.3385	0.170038	-403.091079	-403.082231	-403.081287	-403.126136	32.722	
C	 0.0219764072	 1.5432196788	-0.0709969075	-0.473672
C	 0.0378216518	 0.0326922207	 0.0824932539	 0.38836
O	 0.0567451636	-0.4981078781	 1.169599168	-0.28912
C	 0.028470976	-0.7758031251	-1.212999527	-0.490334
C	 0.0447928394	-2.2732002838	-1.0072083987	 0.353558
C	-0.9739129073	-3.1806749094	-0.2754133305	-0.197248
N	 0.0656107641	-4.204967757	-0.7655348924	-0.147051
C	 0.0412811132	-3.394013595	-2.0722580651	-0.225382
C	 1.0985422144	-3.1616921997	-0.3022350301	-0.197242
H	 0.8910013461	 1.8773109902	-0.6490182265	 0.139194
H	-0.8679160454	 1.8611651767	-0.6259186181	 0.139203
H	 0.0305284255	 2.0158763309	 0.911747715	 0.144224
H	-0.8543476808	-0.4767047049	-1.7963574793	 0.123449
H	 0.890356408	-0.4608172392	-1.8188654871	 0.123453
H	-1.0358606342	-3.0999048177	 0.8109671839	 0.118018
H	-1.960857402	-3.3157234258	-0.7291367544	 0.091298
H	-0.8684049671	-3.5436297316	-2.6621715717	 0.094988
H	 0.9379923716	-3.5270856107	-2.6855386531	 0.094989
H	 2.0757217777	-3.2787534069	-0.7813802441	 0.091298
H	 1.1870929382	-3.0795455325	 0.7821975449	 0.118017
