16
gdb 127997	2.49236	1.68063	1.0163	1.0908	77.78	-0.2485	-0.0829	0.1656	1134.2361	0.122945	-434.046908	-434.038227	-434.037282	-434.08087	30.643	
C	-0.0230471747	 1.4030388952	-0.1552639777	-0.327226
N	-0.0221336514	-0.0487195105	-0.2467109314	-0.301063
C	-1.0675074793	-0.6788304655	 0.0919279131	 0.384581
O	-2.1922838306	-0.0178076687	 0.539401189	-0.288301
N	-3.3466933737	-0.7145208015	 0.915891129	-0.072569
C	-3.2781798084	-1.992223996	 0.8122191646	 0.095262
N	-2.2200096748	-2.7773589988	 0.3791389894	-0.306706
C	-1.1490266846	-2.1471385419	 0.0296840636	 0.281814
C	 0.0478467555	-2.898415065	-0.4517482834	-0.46585
H	 0.9496147989	 1.7813121824	-0.4755098922	 0.12426
H	-0.8015147633	 1.8475258973	-0.7891167079	 0.134332
H	-0.2159448122	 1.7444573269	 0.8701511219	 0.134287
H	-4.1814382684	-2.5158637246	 1.1084882297	 0.147783
H	-0.1602325054	-3.9683508345	-0.4428380895	 0.142421
H	 0.3174657349	-2.5692694856	-1.4601342105	 0.158458
H	 0.9128026176	-2.6713219093	 0.1792225623	 0.158518
