16
gdb 94129	1.93766	1.71789	1.19215	4.6317	73.74	-0.2774	-0.0276	0.2498	1085.5091	0.124292	-396.924626	-396.915852	-396.914907	-396.958142	31.706	
C	 0.329328965	 1.6438977771	-0.1869409018	-0.414922
C	-0.0617924128	 0.1985184925	 0.07404546	-0.032369
C	 0.5870556864	-0.8499512888	-0.8694561541	-0.177373
N	 1.5941294246	-1.1411860481	 0.1780467606	-0.321214
C	 0.7595742588	-0.5246548469	 1.2275835703	 0.017618
C	 1.4972877016	 0.3281389649	 2.1693592072	 0.285997
N	 2.0705393885	 1.027794276	 2.8873314343	-0.327612
C	-0.0797685287	-1.4793725877	 1.9715409899	 0.261084
N	-0.738554089	-2.2689755202	 2.4992848375	-0.323003
H	 1.4103262046	 1.7458555275	-0.3177464809	 0.149252
H	-0.1607476922	 1.9944216477	-1.1007333032	 0.130058
H	 0.0213067707	 2.2964075146	 0.6348459478	 0.14501
H	-1.1386558805	 0.0974682045	 0.2085629395	 0.115806
H	-0.0833065607	-1.6853107934	-1.1031988833	 0.121484
H	 1.0221915581	-0.4641458822	-1.7956041883	 0.12327
H	 1.8477759157	-2.1104513676	 0.3347096843	 0.246914
