20
gdb 76399	2.71637	1.13198	1.12266	1.6111	74.81	-0.2347	0.0487	0.2834	1220.5432	0.169417	-440.224842	-440.215118	-440.214174	-440.259451	36.195	
C	 0.073864993	 1.6638681766	 0.3226220255	-0.441039
C	-0.024803072	 0.1820707739	 0.0106030583	 0.203993
C	-1.4370730815	-0.3385661715	 0.0723986827	-0.049658
C	-2.3356024374	-0.2679163917	-1.1076340468	-0.23915
N	-1.8879927868	-1.573485083	-0.5891950192	-0.334784
C	 0.9666435385	-0.4245938176	-0.9763005645	 0.043442
O	 1.9743534192	 0.3663434377	-1.5256276528	-0.437359
C	 1.0648213122	-0.7520806106	 0.4963480408	-0.005969
O	 2.1484514355	-0.1659957088	 1.1770045015	-0.430523
H	 1.1005340291	 2.0254875505	 0.2733819301	 0.12347
H	-0.5229273991	 2.238263665	-0.3929061928	 0.121968
H	-0.308690325	 1.8723694427	 1.3274899289	 0.119085
H	-1.8923168083	-0.2113742475	 1.0547929083	 0.092097
H	-3.39510602	-0.062093063	-0.9848979973	 0.117861
H	-1.9054605027	 0.0907727995	-2.0395686231	 0.116707
H	-1.1643680688	-1.9497363819	-1.196239078	 0.229821
H	 0.6356279119	-1.1873771973	-1.6767785352	 0.086461
H	 2.5847237902	 0.560049247	-0.8002046658	 0.285395
H	 0.7697393774	-1.7352493416	 0.8578710354	 0.100308
H	 2.8547508946	-0.8199039384	 1.2220024342	 0.297873
