16
gdb 123439	3.85317	1.15983	1.09018	1.7125	69.05	-0.2435	-0.0374	0.2061	1125.6679	0.127336	-430.203827	-430.196326	-430.195382	-430.237013	27.235	
C	-0.1534184873	 1.5919044109	 0.8834518885	-0.323928
C	-0.6678777455	 0.2380914777	 0.3984703688	 0.018387
C	-0.3965264692	-0.26596836	-0.9684061217	-0.237718
N	 0.2276910173	-0.9053684935	 0.2048375819	-0.317926
C	 1.1079380227	 2.0520953453	 0.2333347757	 0.372609
N	 2.3028881087	 1.4990873478	 0.4402016288	-0.264358
N	 3.0684920473	 2.2339509782	-0.3557030903	-0.062653
N	 2.4286145342	 3.1845297547	-1.0170511106	-0.097447
N	 1.176461367	 3.0803645363	-0.6559719039	-0.243009
H	-0.9177291731	 2.3537366847	 0.7026826807	 0.139745
H	 0.0047044005	 1.5387807114	 1.9670345345	 0.133537
H	-1.6140113784	-0.0310836198	 0.8641272641	 0.097914
H	-1.1362351006	-0.8709198918	-1.4848344364	 0.117875
H	 0.2219525217	 0.3439341285	-1.6221382101	 0.118573
H	 1.1973897894	-0.6037469226	 0.2866587169	 0.243283
H	 4.0642291052	 2.0925808522	-0.4423651068	 0.305115
