16
gdb 84605	2.56602	1.6265	1.25317	3.5332	73.73	-0.2696	-0.0251	0.2444	1021.4169	0.125366	-396.924946	-396.917211	-396.916267	-396.957108	29.249	
C	-0.119873095	 1.5737825864	-0.0028721872	-0.398544
C	 0.0629019025	 0.0580039678	 0.0130819034	-0.027732
N	 0.868603998	-0.4193228904	-1.1248316443	-0.198812
C	 1.7826391173	-1.1743846298	-0.6752839903	 0.032945
N	 1.8589961237	-1.4248675462	 0.736721737	-0.14614
C	 2.2258813436	-0.1857469156	 1.4602107565	-0.273967
C	 0.7882029082	-0.5233250252	 1.2505275695	 0.155256
C	-0.0090495371	-0.9858090558	 2.355665203	 0.233451
N	-0.6840577429	-1.3100953437	 3.2364553414	-0.332321
H	 0.8411826577	 2.0913273201	 0.0639896278	 0.121918
H	-0.6054463968	 1.8778895139	-0.9330767465	 0.142423
H	-0.7452095213	 1.8914002009	 0.8365432289	 0.135028
H	-0.9249038432	-0.4137439357	-0.0557317996	 0.118603
H	 2.5175052506	-1.6690763501	-1.3032437883	 0.143444
H	 2.6671804706	-0.3465140248	 2.437848607	 0.151955
H	 2.6439730442	 0.6307312581	 0.8784904317	 0.142492
