18
gdb 7178	2.85545	1.09461	0.83373	3.1715	65.91	-0.2708	0.0051	0.2759	1343.8508	0.150972	-422.098808	-422.089122	-422.088177	-422.13435	32.961	
C	-0.0716941227	 1.5762508791	 0.0808786266	-0.392842
C	-0.0065963162	 0.0543502277	 0.0134006391	 0.102446
C	 0.7237134041	-0.5712306473	 1.1983926782	-0.199934
C	 0.8816278029	-2.0912106866	 1.0960031914	-0.075384
O	 1.6279794696	-2.6272852457	 2.1758611658	-0.415453
O	-1.3546024112	-0.4758606432	 0.0117212869	-0.190966
C	-1.9261634302	-0.7577509903	-1.1718967428	 0.170817
O	-3.0527375359	-1.1418641842	-1.2735784496	-0.276668
H	 0.9364680776	 2.001225709	 0.0878449663	 0.126393
H	-0.6090843325	 1.9826958296	-0.7810340551	 0.125546
H	-0.5907751471	 1.8958128053	 0.9892644578	 0.136907
H	 0.4835081281	-0.2538867239	-0.9217409692	 0.09002
H	 1.7180124981	-0.1185604228	 1.2791849391	 0.113165
H	 0.1789441522	-0.317428936	 2.1172506512	 0.104895
H	-0.1049256115	-2.5667967484	 1.0097808285	 0.111884
H	 1.4460986496	-2.3457754732	 0.1910182289	 0.108935
H	 1.0887756256	-2.559255959	 2.9700867924	 0.284445
H	-1.2399327707	-0.60614729	-2.0289633855	 0.075794
