16
gdb 48042	8.23728	0.42715	0.40916	2.0438	82.17	-0.2729	-0.0685	0.2044	2440.3031	0.122001	-400.744969	-400.734911	-400.733967	-400.782696	32.81	
O	-0.0782178088	-0.0981673751	 0.0025748792	-0.224592
C	-0.020381317	 1.1096924683	 0.0071743718	 0.018199
C	 1.2066070973	 1.8660044343	 0.0008866454	 0.087177
C	 2.2229426615	 2.5183812643	-0.0056032867	 0.051563
C	 3.4447235295	 3.3073074668	-0.0129261392	-0.371383
C	 3.1856554568	 4.8261200763	-0.0024445961	-0.176325
C	 4.5070692541	 5.618417294	-0.0107507974	-0.342421
C	 4.2874854601	 7.0626571165	-0.0010845689	 0.255897
N	 4.0947520593	 8.2017610393	 0.0067183616	-0.295121
H	-0.9372995702	 1.7331586449	 0.0166507863	 0.102382
H	 4.0545909137	 3.0250158123	 0.8561319228	 0.149955
H	 4.0380088418	 3.0343113715	-0.8963156529	 0.149949
H	 2.5857184556	 5.103233852	-0.8739287016	 0.140231
H	 2.6023409969	 5.0939294484	 0.8831181705	 0.140239
H	 5.1164808463	 5.3537102731	 0.8616162179	 0.157126
H	 5.0998792732	 5.3629612632	-0.8972021426	 0.157123
