25
gdb 122162	2.8512	0.7538	0.67141	1.6867	90.32	-0.2539	0.0885	0.3423	1847.2764	0.225938	-389.494383	-389.482983	-389.482039	-389.531719	41.093	
C	 0.1367553658	 1.4242570396	-0.5276033022	-0.381382
C	-0.0122314703	 0.064296716	 0.1597383004	-0.164672
C	-1.3860633589	-0.575378451	-0.0666776403	-0.154456
C	-1.5306016768	-1.9422101183	 0.6200744323	-0.275134
C	-2.8604354572	-2.6207995416	 0.3338614048	 0.397489
C	-4.0728299442	-1.9952378205	 0.9969770181	-0.460957
O	-3.073368293	-2.9925019224	-1.0434447359	-0.303765
C	-2.95009489	-4.0395887385	-0.0726482294	 0.027084
C	-1.8004908045	-5.0025263328	-0.226543082	-0.425922
H	 1.1265176012	 1.8565578843	-0.3499440388	 0.109996
H	 0.0008551404	 1.3362593075	-1.611195679	 0.115921
H	-0.6090977634	 2.1376416653	-0.1594568021	 0.112688
H	 0.7684810159	-0.6173704661	-0.2034267327	 0.094103
H	 0.163560397	 0.1772456096	 1.2381430271	 0.091585
H	-2.1633670071	 0.1119836056	 0.2909687452	 0.0925
H	-1.5611878329	-0.7068343161	-1.141574206	 0.112872
H	-0.7071738831	-2.5838100564	 0.2934823607	 0.097384
H	-1.4227302237	-1.825951686	 1.706971042	 0.093316
H	-4.1889017156	-0.9479717067	 0.7009896471	 0.127144
H	-4.9835969032	-2.5271531225	 0.7112385478	 0.124421
H	-3.9782888286	-2.0263462649	 2.0881165153	 0.116498
H	-3.9007962806	-4.5328263864	 0.1490057377	 0.076804
H	-0.8668390437	-4.4950009217	-0.4748544832	 0.128512
H	-1.6551285578	-5.5765619923	 0.6953241568	 0.119772
H	-2.0175707358	-5.7138220939	-1.0306819137	 0.128198
