20
gdb 78943	2.65212	1.96855	1.5062	0.9779	81.56	-0.2144	0.087	0.3014	964.7512	0.171578	-365.929028	-365.9215	-365.920556	-365.960468	30.782	
C	 0.0033099803	 1.5335321715	-0.1291374499	-0.327341
N	-0.0105494722	 0.087687814	 0.0119483527	-0.063107
C	-1.2281741031	-0.5671383612	 0.5305941899	-0.040416
C	-1.4660016226	-0.1291522101	 2.0161434027	-0.134267
C	-0.8248548215	-1.3770916315	 2.5836785711	-0.176882
C	-0.3478141377	-1.7087603194	 1.1398916137	-0.060235
C	 0.6822334867	-0.5320713923	 1.1600113296	-0.1042
C	-0.0147149985	-0.1025135571	 2.5032902722	 0.364462
C	 0.5083797033	 0.7712262772	 3.6037723272	-0.52099
H	 1.0199733098	 1.8688155383	-0.3606145875	 0.116523
H	-0.6429194383	 1.8249100935	-0.9643266146	 0.116914
H	-0.3401830764	 2.0681881865	 0.7723814556	 0.101136
H	-2.0761319079	-0.6918020279	-0.1435666071	 0.06588
H	-2.2392352838	 0.4939423671	 2.4465002677	 0.081581
H	-1.0991050098	-1.992409516	 3.4293664034	 0.085225
H	-0.177356361	-2.6765317649	 0.6777588635	 0.075766
H	 1.7692641838	-0.6197213069	 1.1220379581	 0.061902
H	 0.7038834112	 1.7914222939	 3.2533884041	 0.119905
H	-0.2087561446	 0.8365600303	 4.4295235757	 0.119634
H	 1.4452886523	 0.377548145	 4.0148142717	 0.118511
