17
gdb 74393	3.25359	1.54887	1.19431	3.1388	73.19	-0.2237	-0.0027	0.221	1041.0363	0.13435	-421.746812	-421.739103	-421.738159	-421.778549	30.646	
C	-0.0525527021	 1.5137194615	 0.0141614398	-0.501566
C	-0.0029860125	 0.0252900527	-0.0426978201	 0.325729
C	-0.0284367247	-0.8166083504	-1.0817166564	-0.331155
C	 0.0454453586	-2.2041010091	-0.4610827745	 0.377884
O	-0.0345786725	-3.3416286767	-1.2416594157	-0.476708
C	-0.7791704141	-2.1738478709	 0.8687794971	 0.045391
O	 0.1820570227	-3.0397066554	 1.559115248	-0.323581
C	 1.0116880264	-2.1045116313	 0.7951045142	 0.004639
C	 0.0854939939	-0.899290753	 1.1643564217	-0.162685
H	 0.8369984501	 1.9241390867	 0.5090212563	 0.130609
H	-0.1166708522	 1.9498702044	-0.9865515107	 0.127573
H	-0.9171319347	 1.8617334075	 0.5936351095	 0.132042
H	-0.1037051425	-0.6008569358	-2.1396670577	 0.102437
H	 0.661215877	-3.3084085649	-1.9064399811	 0.285592
H	-1.8448809586	-2.3519862409	 1.0311624486	 0.093968
H	 2.0983543345	-2.2000087026	 0.8688485259	 0.088726
H	 0.1124082406	-0.5135312418	 2.1813920249	 0.081105
