15
gdb 123325	4.11406	1.27893	1.05774	2.8043	78.63	-0.2394	0.0126	0.252	1100.5515	0.114036	-379.615012	-379.607701	-379.606757	-379.647266	27.637	
C	-0.5551837382	-1.3405175248	-0.1388376621	-0.420954
C	-0.2407470843	-0.1840086916	-0.0595546867	 0.337871
C	 0.1115583522	 1.2177310362	 0.0435312583	-0.17192
C	-0.1344438057	 1.9481521084	 1.4448037494	-0.393841
C	 1.3646389739	 2.2064204995	 1.4329987486	 0.371387
C	 2.5952651484	 2.7362360694	 1.768204897	-0.385374
C	 3.4211568874	 2.2861566941	 0.6984759937	 0.014454
N	 2.7720158383	 1.5611849259	-0.2289390749	-0.304232
N	 1.5369261545	 1.5337928661	 0.2857926512	 0.107424
H	-0.8227420562	-2.3659596428	-0.2130935366	 0.210288
H	-0.2928458767	 1.7844897418	-0.8012960043	 0.136234
H	-0.7773150208	 2.8279027129	 1.3738539324	 0.136157
H	-0.5043188311	 1.2798482294	 2.2238656099	 0.141155
H	 2.8845404579	 3.3336841007	 2.6160383666	 0.108228
H	 4.4799556504	 2.4642190248	 0.5743084674	 0.113123
