12
gdb 130474	4.23623	1.64931	1.18712	3.5566	68.36	-0.2519	-0.0945	0.1573	915.2286	0.080567	-431.644971	-431.639235	-431.638291	-431.675128	22.355	
O	-0.0347322754	 1.2863563424	 0.0093296732	-0.13945
C	 1.2088802027	 1.762019406	-0.0000251802	-0.02959
C	 2.0940955745	 0.7133874456	-0.0141227491	 0.100288
C	 3.495454653	 0.4766254503	-0.0288041481	-0.055471
N	 3.996977716	-0.727473901	-0.0400804237	-0.214874
N	 3.1670190014	-1.8358376991	-0.0380976914	-0.194542
C	 1.8705033336	-1.7104820791	-0.0250141953	-0.025758
C	 1.2407466795	-0.4287330856	-0.0120945216	 0.323666
N	-0.0408900111	-0.1051045656	 0.0019273299	-0.22745
H	 1.3070524849	 2.8361622324	 0.0047996079	 0.180907
H	 4.2139244933	 1.2923800902	-0.0313006975	 0.134894
H	 1.2872915876	-2.6267941465	-0.0243495542	 0.147381
