19
gdb 70323	2.98465	1.48226	1.21342	1.6196	73.38	-0.2473	0.0755	0.3227	1060.2502	0.160084	-422.997292	-422.989599	-422.988654	-423.02926	31.229	
O	-0.087496684	 1.3832714068	 0.0466530232	-0.473555
C	 0.01649437	-0.016642169	-0.0059129931	 0.405163
C	-0.4303396103	-0.7149038692	-1.2655026472	-0.362123
C	-1.2955155532	-0.7424487358	-0.0159791538	-0.05314
C	-1.4123081328	-1.9880063668	 0.8637905505	-0.278751
C	-0.7271635371	-1.7837997013	 2.2129407004	 0.055788
O	 0.4965452422	-2.4960533108	 2.4353816048	-0.258486
C	 0.5651236219	-1.080726947	 2.2193905181	 0.055935
C	 1.1153827117	-0.6235407334	 0.8721357098	-0.318357
H	 0.6427620786	 1.7530769328	-0.4621854963	 0.279213
H	-0.7678984304	-0.0902679959	-2.0854554943	 0.111231
H	 0.0753497814	-1.6295408507	-1.5621431029	 0.109752
H	-2.1664424219	-0.0962918063	-0.0448137364	 0.098652
H	-2.4649803658	-2.2450385996	 1.009517274	 0.107329
H	-0.942725345	-2.8503043854	 0.3789454162	 0.118584
H	-1.367787727	-1.7235580464	 3.0916708636	 0.091035
H	 0.8580892271	-0.5112631631	 3.0998126229	 0.093043
H	 1.5650776248	-1.4930788858	 0.3831657605	 0.118547
H	 1.9071310396	 0.118279807	 1.0110839101	 0.100141
