16
gdb 36027	1.99651	1.59697	1.03711	5.1767	73.42	-0.2681	0.0198	0.2879	1155.4435	0.121582	-400.701631	-400.692447	-400.691503	-400.736463	32.853	
C	-1.4448642801	-0.0731142304	-0.2510196894	-0.411928
C	-0.8268088808	 0.9559750895	-0.28175604	 0.288526
C	-0.0754662589	 2.2037922462	-0.3374704162	-0.425246
C	 1.4054360647	 2.0779882016	 0.0181343826	 0.404493
C	 2.2198679295	 1.023028925	-0.7340028242	-0.418028
C	 2.0918000329	-0.330786292	-0.1912892174	 0.295513
N	 2.0464489678	-1.4069339804	 0.2250534139	-0.3127
C	 2.0992667557	 3.2701606601	 0.5286445964	-0.226072
O	 1.7275616555	 2.1971319122	 1.3978498961	-0.248394
H	-1.9732733641	-0.9934373861	-0.207643641	 0.209426
H	-0.151384974	 2.6307729023	-1.3471433835	 0.137332
H	-0.516935966	 2.9368582668	 0.3467659548	 0.146891
H	 1.927706908	 1.0091528007	-1.7900358196	 0.15777
H	 3.2804051654	 1.2910014847	-0.6971176836	 0.157412
H	 3.1683829935	 3.3898661392	 0.3599629048	 0.122085
H	 1.545317101	 4.1976673606	 0.6667819865	 0.122918
