20
gdb 120678	3.29596	0.757	0.67248	1.7683	86.03	-0.2241	0.038	0.2621	1725.8475	0.16882	-403.086353	-403.075833	-403.074889	-403.124342	36.484	
C	 0.1959525962	 1.5385997429	 0.1248787761	-0.499048
C	 0.0973632363	 0.0865596862	 0.1217750532	 0.046816
C	 0.017850354	-1.1161317613	 0.1327867874	 0.107501
C	-0.0427067948	-2.5519369704	 0.0928874396	-0.184254
C	-0.701706812	-3.320449323	 1.1975366234	-0.252001
N	-1.315058428	-3.2715338378	-0.1234924023	-0.105301
C	-2.5378204944	-2.4797738954	-0.257646549	-0.131551
C	-3.7496528482	-3.4069419277	-0.2031947636	-0.065932
O	-3.8417190645	-4.1167895161	 1.0218251663	-0.422047
H	 1.2423645423	 1.8612296806	 0.1618403862	 0.151804
H	-0.2518959042	 1.9726575564	-0.7760346473	 0.149677
H	-0.314575744	 1.9716815427	 0.9921265184	 0.150122
H	 0.7947653347	-3.0239223784	-0.4168206148	 0.112092
H	-0.2891743113	-4.279219477	 1.5024495861	 0.115618
H	-1.1606010177	-2.7387294388	 1.9937677863	 0.128371
H	-2.6240209608	-1.705549724	 0.5195487284	 0.100935
H	-2.5154400827	-1.9726152346	-1.2294618637	 0.104852
H	-4.6659240042	-2.8124443221	-0.2848891226	 0.105221
H	-3.7173244431	-4.0965748078	-1.0595315222	 0.094401
H	-3.1074350135	-4.7387549643	 1.0380854743	 0.292726
