15
gdb 10450	3.30533	1.57743	1.25053	2.1026	67.48	-0.259	-0.0393	0.2197	973.5157	0.116832	-362.610607	-362.602431	-362.601487	-362.643563	29.363	
O	-0.3206383401	 0.4576164622	 0.970526171	-0.273835
C	-0.0784401388	 1.2109904102	 0.0573537895	 0.111569
C	 1.2207493614	 1.9416056602	-0.0746965589	 0.235377
C	 1.5496359584	 2.5199665621	-1.4444029472	-0.437517
C	 1.5589834701	 1.5052514547	-2.4940025434	 0.296764
C	 1.5430347196	 0.6515122834	-3.3394018742	-0.436294
C	 1.6809051633	 2.6282197367	 1.1787500742	-0.264183
N	 2.3392221059	 1.4136673465	 0.7165863966	-0.327542
H	-0.8206612467	 1.4064590151	-0.7440630561	 0.094827
H	 0.8201842021	 3.3022143842	-1.6945722976	 0.135211
H	 2.527587023	 3.0089562886	-1.3861059553	 0.149149
H	 1.5413919457	-0.0988578673	-4.0908332364	 0.202715
H	 2.2630360131	 3.5412877161	 1.0833767071	 0.126635
H	 1.0264151929	 2.5744892135	 2.0440500236	 0.13602
H	 1.9839612002	 0.6207804138	 1.2526222969	 0.251104
