16
gdb 53894	1.92669	1.39958	1.10961	2.4301	72.45	-0.245	-0.0398	0.2051	1183.0735	0.120907	-437.903282	-437.89339	-437.892445	-437.938961	35.071	
C	 1.0071038135	 1.2703250544	-0.1095149809	-0.476871
C	-0.1642944551	 0.3223346659	-0.1848409188	 0.386268
O	-1.0655869252	 0.328864487	 0.6213454639	-0.30463
C	-0.1221199308	-0.6933638165	-1.3572098101	-0.34897
C	 0.4646481642	-1.925708135	-0.8437211342	 0.336615
C	 0.9579132585	-2.9253156372	-0.3942909152	-0.470418
C	-1.4957667289	-0.9571466418	-2.0430608702	 0.387152
N	-2.5116110705	-1.238118156	-1.1917273106	-0.506012
O	-1.5822621441	-0.9415344827	-3.2520039993	-0.354368
H	 1.9458014601	 0.7067092785	-0.137644469	 0.159261
H	 1.0031222007	 1.9286437035	-0.9862486987	 0.156323
H	 0.9510428262	 1.867714945	 0.8007285152	 0.150008
H	 0.5130836027	-0.2969081223	-2.154661627	 0.137652
H	 1.3838197074	-3.820158356	-0.0122795521	 0.207903
H	-2.4139698254	-0.97843572	-0.2196363748	 0.278974
H	-3.4329414133	-1.3197956068	-1.5921749082	 0.261113
