17
gdb 7807	3.5237	1.79414	1.24838	4.5042	65.54	-0.2333	0.0134	0.2467	959.0679	0.143254	-401.024843	-401.017342	-401.016398	-401.056702	27.784	
C	 0.0125489638	 1.485189013	-0.0104764196	-0.318108
N	-0.000062385	 0.0332614933	-0.06469067	-0.075391
C	 0.7861018818	-0.511284933	-1.1567789007	-0.167018
C	 0.5054608782	-1.9990378598	-1.2458551196	-0.06694
O	 0.7577787908	-2.6910112706	-0.0117753924	-0.222241
C	 0.6039990484	-2.0697476427	 1.1778138142	 0.408434
O	 0.6787565491	-2.7029518656	 2.194548511	-0.325328
C	 0.4305566034	-0.5544812877	 1.1935444113	-0.290289
H	 1.0225055059	 1.9031192832	 0.1629659597	 0.098428
H	-0.3707117551	 1.8937177106	-0.9502996081	 0.123072
H	-0.6371832527	 1.8283841541	 0.800632433	 0.127442
H	 0.4816501499	-0.0399239508	-2.0972495388	 0.113817
H	 1.872550621	-0.3305382178	-1.0304052928	 0.089463
H	-0.5432506329	-2.1619115512	-1.5180557523	 0.124266
H	 1.1438580678	-2.4822917895	-1.9897295005	 0.12251
H	 1.4093964814	-0.1525202043	 1.5292480962	 0.113996
H	-0.2875124459	-0.3256890511	 1.9855609692	 0.143888
