16
gdb 16038	3.54087	1.74637	1.44044	4.7839	70.3	-0.2541	-0.0012	0.2529	904.5826	0.13128	-342.754762	-342.747378	-342.746434	-342.78621	27.757	
C	-0.0660317045	 1.5810574989	 0.0198168357	-0.429629
C	 0.0424715503	 0.0773156155	 0.1123124324	-0.015858
N	 1.2060949261	-0.7247493536	-0.3009274518	-0.169881
C	 2.4525358332	 0.0309924672	 0.0923704981	-0.153945
C	 2.0754573395	 0.0332136557	 1.5925511674	-0.314473
C	 0.7755794714	-0.6652251529	 1.1765245904	 0.182587
C	 0.2026978523	-1.7780314701	 1.8725366245	 0.21301
N	-0.2607631409	-2.6564258497	 2.4667302911	-0.339442
H	 0.7795979525	 2.1084942067	 0.4643893484	 0.128828
H	-0.146066596	 1.8882540486	-1.0282344056	 0.139035
H	-0.9728111992	 1.9124775048	 0.5347955329	 0.138928
H	-0.8634988514	-0.4352948228	-0.205287635	 0.12091
H	 3.3247076869	-0.5821337418	-0.1364068789	 0.127837
H	 2.558454581	 0.998127045	-0.4054764124	 0.116249
H	 2.7184962201	-0.6130557537	 2.1900560409	 0.137497
H	 1.9630778587	 0.9922561921	 2.1044553119	 0.118348
