18
gdb 54782	3.69428	1.27542	1.15114	3.3013	76.09	-0.2256	0.003	0.2286	1098.3872	0.149063	-401.944718	-401.936787	-401.935843	-401.977818	30.796	
N	 0.6961154439	 0.075938717	 1.2223080719	-0.524737
C	 0.1264967519	-0.0343729666	-0.0169317636	 0.375885
O	 0.6125809301	 0.4979930104	-0.9982757791	-0.36121
C	-1.1598783198	-0.8489530518	-0.0254227166	-0.080397
C	-1.9216443173	-0.9634161215	-1.3926903179	-0.066506
C	-0.869148109	-2.0601067359	-1.7808867045	-0.21408
C	-1.0247622052	-2.41209482	-0.2625259615	-0.088822
C	-2.5103503362	-2.8001012522	-0.2193190188	-0.094547
C	-3.0956911337	-1.8537289134	-0.9597676061	-0.094612
H	 1.5903004423	 0.5334027008	 1.294085734	 0.258745
H	 0.3506826982	-0.4343347293	 2.0160936667	 0.257622
H	-1.7762174974	-0.5798922201	 0.8379364845	 0.076807
H	-2.1057353167	-0.0887031365	-2.0127946477	 0.075086
H	-1.1886652768	-2.822256547	-2.4945176044	 0.089952
H	 0.1018327375	-1.6401844432	-2.0452007598	 0.129257
H	-0.3022072182	-3.0201216095	 0.2823621069	 0.060401
H	-2.9355604769	-3.6477143681	 0.299214891	 0.099867
H	-4.1361715065	-1.7114393633	-1.214553475	 0.10129
