19
gdb 127118	3.91423	1.12855	0.89473	1.8766	81.12	-0.19	0.0234	0.2133	1324.0119	0.160237	-415.410803	-415.401339	-415.400395	-415.445372	33.145	
C	-0.0163273072	 1.3727641722	 0.1920991872	-0.334684
N	-0.0650688718	-0.0161405863	-0.2265409865	-0.150941
C	 1.1696799894	-0.7691094193	-0.1259373478	-0.324266
C	-1.243416595	-0.7031644627	-0.0700732825	 0.47455
N	-1.3052649289	-2.0358731916	-0.0533977207	-0.380866
N	-2.6509259956	-2.2570368306	 0.0457847083	 0.059244
C	-3.1693523216	-3.6022279054	 0.0906669352	-0.317229
C	-3.2979938969	-1.0838422376	 0.1011240537	 0.007326
N	-2.4537475031	-0.071139435	 0.0347632978	-0.362243
H	 0.7705280585	 1.889802	-0.3665479053	 0.115241
H	-0.9745342654	 1.8467710399	-0.0171089556	 0.160955
H	 0.1984090304	 1.4829038257	 1.2678928304	 0.105343
H	 1.4395839814	-1.0078034385	 0.9157363517	 0.107885
H	 1.0726051761	-1.7083724898	-0.6723128697	 0.150602
H	 1.9812275804	-0.1816770938	-0.5657877944	 0.114634
H	-4.2563902621	-3.5573443157	 0.1820983314	 0.13875
H	-2.9055521682	-4.1423506513	-0.8230950185	 0.149531
H	-2.756091519	-4.140554282	 0.9484536668	 0.149247
H	-4.3722913514	-1.0110163782	 0.1897727585	 0.136921
