17
gdb 31271	2.37205	1.35755	0.92691	0.8487	72.74	-0.1991	0.0303	0.2294	1255.3534	0.134911	-458.96902	-458.959814	-458.95887	-459.004554	32.175	
C	-0.0612751434	 1.2728616247	-0.298111945	-0.254358
O	-0.1033756755	 0.0397610083	 0.4260732219	-0.269802
C	-1.2320431316	-0.6705515191	 0.3177165681	 0.354358
C	-1.4204130429	-2.017114294	 0.2514696834	 0.142052
C	-0.366249111	-3.068141161	 0.1898530921	-0.213686
O	-0.5806279109	-3.8654781816	-0.9749224187	-0.419565
C	-2.8507495281	-2.1921311778	 0.2479690657	-0.255948
C	-3.3991576409	-0.9567485002	 0.3028872655	-0.023697
O	-2.4120902666	-0.0016295808	 0.3572712051	-0.19277
H	 0.9398775585	 1.676948066	-0.1436561402	 0.137349
H	-0.2315402542	 1.1019983046	-1.367234725	 0.130267
H	-0.8067198282	 1.9777877762	 0.0805915761	 0.141239
H	 0.6209392247	-2.5832750865	 0.1733831384	 0.099434
H	-0.4050441067	-3.6991518584	 1.0929175357	 0.091692
H	 0.0359597458	-4.603550891	-0.9388263875	 0.283745
H	-3.3800066487	-3.1300247756	 0.1862315792	 0.116645
H	-4.4069309703	-0.5784729039	 0.2953285853	 0.133045
