21
gdb 109425	2.28147	1.30181	1.03843	3.5208	78.78	-0.2467	-0.0266	0.2201	1258.5696	0.180256	-424.239402	-424.229607	-424.228663	-424.273833	36.935	
C	-0.2240843258	 1.5595930935	-0.0700403525	-0.440537
C	-0.0327939376	 0.0407788197	-0.0262360029	 0.284295
C	-1.3208566052	-0.6881291964	-0.3983830596	-0.451755
C	 1.2472393179	-0.3997584817	-0.8296073477	-0.378697
C	 1.9642460611	-0.5312476958	 0.5128604877	 0.401171
O	 3.1163559046	-0.5147565525	 0.8616809424	-0.324879
C	 0.6595450416	-0.4714646754	 1.3004359385	-0.147724
C	 0.730123552	 0.3194568666	 2.6077983106	-0.091985
O	 1.6411299451	-0.2983007831	 3.4973699274	-0.423459
H	 0.7033333887	 2.0979092091	 0.1512340971	 0.122189
H	-0.5549122606	 1.8715808312	-1.0667628402	 0.11813
H	-0.9816304499	 1.8879436184	 0.6494278622	 0.121911
H	-1.6522817301	-0.4116730219	-1.4056992396	 0.118629
H	-1.1847789288	-1.7745838627	-0.3763648195	 0.11419
H	-2.1304284848	-0.437953574	 0.2965284001	 0.120684
H	 1.1277278207	-1.3745715898	-1.315105861	 0.128445
H	 1.6750810458	 0.302644902	-1.5498553031	 0.12666
H	 0.3271281121	-1.4924238986	 1.5274383917	 0.107091
H	 1.0134522874	 1.3633723927	 2.4056442399	 0.090046
H	-0.2428116767	 0.3376307408	 3.1107565648	 0.109057
H	 2.4830217724	-0.3626688619	 3.0262453736	 0.296538
