18
gdb 105985	2.68835	1.56535	1.18851	2.1959	74.96	-0.2132	0.0607	0.2739	1075.9395	0.146453	-401.820756	-401.812556	-401.811612	-401.853505	31.313	
C	-0.0826773988	 1.479715523	 0.1073934791	-0.528064
C	-0.0189506919	-0.0073916076	-0.0076629162	 0.265753
C	 0.9245550724	-0.9696527578	-0.7849912944	-0.11625
C	-0.1586922859	-1.9781118243	-0.9107898753	-0.118991
N	 0.7803098889	-2.0402556651	 0.2648702908	-0.175559
C	-0.1656947434	-1.1065598675	 1.0155487573	-0.136739
C	-1.1442675489	-1.055027907	-0.1468539349	 0.263547
C	-2.6238170062	-0.8915861688	-0.1776236326	-0.205409
O	-3.3208702182	-2.0825864796	 0.1669397142	-0.411669
H	 0.8538420307	 1.8847381849	 0.5082261059	 0.129917
H	-0.2640304354	 1.9529374743	-0.864470706	 0.127187
H	-0.8895229463	 1.7856739224	 0.7816326839	 0.127036
H	 1.8445939008	-0.8205838081	-1.338721407	 0.095821
H	-0.2962649599	-2.8124428734	-1.58821832	 0.100616
H	-0.297589469	-1.0895319333	 2.0916989517	 0.095964
H	-2.9091790838	-0.0517137906	 0.4780184385	 0.088666
H	-2.9655365623	-0.6385863824	-1.188048056	 0.115683
H	-2.9561986928	-2.394333249	 1.0023062208	 0.282492
