18
gdb 20069	4.65936	1.51575	1.36325	1.0634	67.71	-0.2493	0.0895	0.3388	962.1631	0.154947	-384.925278	-384.917736	-384.916792	-384.958228	27.475	
C	-0.3185735315	 1.3621440315	-0.2415427886	-0.252993
C	 1.1133335955	 0.9801139625	 0.0444578545	-0.267776
C	 0.0454275326	-0.0805429836	-0.0234527206	-0.023754
C	-0.3876486217	-0.7991871873	 1.2264033205	 0.211971
O	-0.3777471663	 0.0641892673	 2.3401109513	-0.25214
C	-1.3325817483	-0.4721830491	 3.2415755257	-0.105531
C	-2.4240537208	-1.0032897294	 2.3019211636	-0.084706
O	-1.7229418823	-1.287315121	 1.0972704342	-0.274506
H	-0.8642713063	 1.8593786809	 0.5510921782	 0.120189
H	-0.5842149031	 1.6727693033	-1.2455717059	 0.107774
H	 1.8372251779	 1.0271559445	-0.7614797537	 0.108274
H	 1.5055594524	 1.2285063398	 1.023690125	 0.126553
H	 0.0469159572	-0.7311923992	-0.8921308052	 0.093615
H	 0.2733837942	-1.6642054564	 1.4231126119	 0.063528
H	-0.8910101923	-1.2838917558	 3.8393406294	 0.100634
H	-1.6663075606	 0.3236148791	 3.9105810033	 0.118297
H	-2.9045220891	-1.9118965494	 2.6818152934	 0.105249
H	-3.1985058974	-0.2487915178	 2.1116386431	 0.105321
