18
gdb 12078	3.52683	1.75818	1.55915	2.7186	67.33	-0.2484	0.0823	0.3308	902.7842	0.151676	-384.887522	-384.879441	-384.878497	-384.919657	30.4	
C	 0.0876359845	 1.343346855	-0.0618245295	-0.248619
O	-0.022004709	-0.0465361294	 0.1542076863	-0.281836
C	-1.3174499513	-0.5824204298	 0.0512745812	 0.41196
C	-2.2631760813	-0.076859976	 1.1405551488	-0.45769
C	-1.9896472973	-0.600282056	-1.3870597809	-0.328283
C	-1.9828227289	-2.1299162818	-1.2969354941	 0.036926
O	-0.6131882521	-2.5258470772	-1.1883574234	-0.24172
C	-1.2872541867	-2.1203442599	 0.0006138371	-0.020092
H	 1.1552499047	 1.5749918091	-0.0827738663	 0.130438
H	-0.3550452959	 1.6466355651	-1.0220673025	 0.106718
H	-0.3808158089	 1.9354468988	 0.7373283733	 0.105881
H	-2.4960743459	 0.9844213376	 1.0135995913	 0.122118
H	-3.2082862551	-0.6278604888	 1.1174850086	 0.120572
H	-1.8067790936	-0.2154382337	 2.1260413899	 0.12555
H	-2.9822766656	-0.1444790423	-1.4038242124	 0.10275
H	-1.3787172003	-0.2058866871	-2.201317369	 0.114247
H	-2.6822158191	-2.8474572746	-1.7088784155	 0.103594
H	-1.3035899781	-2.8154113889	 0.8331924172	 0.097488
