21
gdb 74917	2.92628	1.64928	1.46129	0.4076	86.67	-0.2132	0.0336	0.2468	1019.8312	0.186337	-349.984704	-349.977589	-349.976644	-350.015723	30.308	
C	-0.0017809365	 1.5181517281	 0.0665943758	-0.499713
C	 0.0012358162	 0.0202655057	-0.0327079368	 0.371945
C	-0.032843558	-0.6760851999	-1.1760988213	-0.206687
C	-0.022230817	-2.1783206235	-1.0417863768	-0.083136
C	-1.1990498185	-2.587605347	-0.1066975685	-0.218144
C	-0.7016300724	-2.1209785441	 1.2497165466	-0.056701
C	 0.8033274421	-2.1147007981	 1.2010386803	-0.056701
C	 1.2159259493	-2.5775298059	-0.184810954	-0.218144
C	 0.0450129553	-0.7843612238	 1.2169141916	-0.131288
H	 0.8933566789	 1.8855970128	 0.5847810749	 0.1219
H	-0.035859517	 1.9837694629	-0.9222644954	 0.118776
H	-0.864405247	 1.8782711529	 0.6419158542	 0.121896
H	-0.066361646	-0.2000679378	-2.1508219143	 0.073202
H	-0.0513712398	-2.6842926022	-2.0079422238	 0.059193
H	-2.144254532	-2.1275542822	-0.4111627291	 0.094932
H	-1.3304178995	-3.6761942273	-0.1031167138	 0.092425
H	-1.2493366132	-2.3776879065	 2.1488725017	 0.078707
H	 1.4101144631	-2.3665965727	 2.0628517024	 0.078707
H	 1.3563207795	-3.6649848049	-0.1900206463	 0.092425
H	 2.1356127204	-2.109698322	-0.5495961341	 0.094932
H	 0.0730336221	-0.2376586844	 2.1537308967	 0.071473
