21
gdb 74415	2.71956	1.3921	1.06917	1.883	84.87	-0.229	0.0131	0.2421	1227.2289	0.180224	-387.107021	-387.097595	-387.096651	-387.140446	36.201	
C	 0.0714182892	 1.511900469	 0.0551462359	-0.485102
C	-0.0493137239	 0.0233808249	-0.011386578	 0.310049
C	-0.1297546058	-0.7397613823	-1.1067024843	-0.239261
C	-0.1483637981	-2.1958663935	-0.7585926882	 0.337449
C	-0.7462310221	-3.2093284152	-1.6933655528	-0.494657
O	 1.064811232	-2.601628612	-0.0601677885	-0.343098
C	-0.0938400916	-2.2687639802	 0.7200701901	 0.338225
C	-0.6549790119	-3.3642011189	 1.5854485923	-0.485524
C	-0.0561346087	-0.8314592492	 1.2447354604	-0.375267
H	 1.0197376783	 1.8108787199	 0.5198318015	 0.130102
H	 0.0250906281	 1.9639314736	-0.9392691782	 0.124443
H	-0.7264644787	 1.9492986451	 0.6690669408	 0.123092
H	-0.1413270194	-0.3748849433	-2.127948846	 0.08883
H	-0.1706320963	-3.2558944042	-2.6246470821	 0.128047
H	-0.7459444299	-4.2076641356	-1.2508083999	 0.127708
H	-1.7758204957	-2.9381312428	-1.9504800711	 0.122082
H	-0.671951432	-4.3181611341	 1.053876046	 0.127423
H	-0.0402834206	-3.4936579996	 2.483614933	 0.12661
H	-1.6732000212	-3.1237419034	 1.9094978625	 0.118025
H	 0.8330607142	-0.6570324419	 1.8640345913	 0.11751
H	-0.9284853458	-0.6115563462	 1.8757097751	 0.103314
