15
gdb 19889	4.13446	1.95527	1.63042	2.5608	70.9	-0.2049	0.0458	0.2507	806.651	0.118446	-325.388522	-325.381908	-325.380964	-325.418931	26.686	
C	-0.2079479383	-1.3077415302	-0.1579372495	-0.456576
C	 0.028167875	-0.1409829044	 0.016698598	 0.351676
C	 0.1294173576	 1.2906236202	 0.1051616648	-0.200007
C	 0.500926576	 2.1758719363	 1.2831402528	-0.087176
C	 1.7503100935	 1.7151353234	 2.084445998	-0.060827
N	 2.2488569848	 0.444987266	 1.511305302	-0.313606
C	 2.5714649788	 1.732882106	 0.8574210257	-0.060825
C	 1.3480988679	 2.194173254	 0.0172344132	-0.087189
H	-0.3568840241	-2.3522894227	-0.2722659939	 0.181987
H	-0.6895506461	 1.7662401765	-0.4360305399	 0.118308
H	-0.1822913611	 2.9324635762	 1.6479886506	 0.095034
H	 1.9855732003	 2.0150256005	 3.0967960356	 0.096698
H	 3.0658843239	 0.1657751471	 2.0540400155	 0.230773
H	 3.5929070913	 2.0497633707	 0.6950086291	 0.096697
H	 1.4146093705	 2.9669591205	-0.738219312	 0.095033
