17
gdb 63612	2.9384	1.07116	0.95577	3.8061	78.1	-0.2657	-0.0697	0.1961	1293.8406	0.131398	-421.790668	-421.780958	-421.780014	-421.825434	34.985	
C	 0.2747540736	 1.4441171047	-0.498332752	-0.46748
C	-0.0145780514	 0.0321699929	-0.0441799312	 0.388735
C	-1.2467085935	-0.6155189132	-0.6401039816	-0.447432
O	 1.1228088419	-0.8243325538	 0.0635960347	-0.262942
C	 0.4694810581	-0.4777296986	 1.275864145	-0.122052
C	 1.2164025085	 0.394649775	 2.2450596769	 0.251011
O	 2.2070080819	 1.0323798512	 1.9613326883	-0.293776
C	 0.6276310639	 0.4334935966	 3.5744765725	 0.25305
C	 0.1305594238	 0.4509093878	 4.6708305849	-0.427601
H	 1.1825841105	 1.8285159049	-0.0339196392	 0.165846
H	 0.4081479486	 1.4547231285	-1.5854580559	 0.128384
H	-0.5648326291	 2.1052175521	-0.2593652388	 0.121183
H	-1.1707286396	-0.6280877972	-1.7327778727	 0.132743
H	-1.3569344533	-1.6450141714	-0.2919963784	 0.130488
H	-2.1477677882	-0.053645018	-0.3738667408	 0.127348
H	-0.1054283346	-1.2762906459	 1.7460493416	 0.103295
H	-0.2956236211	 0.4813996042	 5.6444170666	 0.2192
