20
gdb 76523	2.52447	1.18723	1.18393	2.8568	81.64	-0.2511	0.0292	0.2803	1218.0481	0.170265	-403.141309	-403.132035	-403.131091	-403.175241	34.357	
C	-0.1141624379	 0.7607941546	-2.0760730058	-0.415113
C	 0.0504061734	-0.3512009041	-1.0631120585	-0.082783
C	 1.3486020694	-0.6360522099	-0.3462224538	-0.082781
C	 2.614742103	 0.1620154129	-0.5691220963	-0.415113
C	 0.182631624	-0.0449071518	 0.4096140976	 0.172189
C	 0.0510828359	 1.2707877606	 1.1705934913	-0.156999
O	-0.6845390265	 0.5601170231	 2.2204906648	-0.269329
C	-0.57355298	-0.6437587608	 1.5409862877	 0.391333
N	-0.9851447975	-1.7930041528	 1.8296678809	-0.568268
H	 0.462362107	 1.6524151823	-1.81461256	 0.117164
H	 0.2135519249	 0.4352176842	-3.0691320079	 0.126202
H	-1.1646096307	 1.0601659026	-2.1553150366	 0.126533
H	-0.5554893521	-1.2310132678	-1.2651434511	 0.110868
H	 1.517837391	-1.6859445359	-0.1202109011	 0.110869
H	 2.4148669909	 1.2239878471	-0.7364382778	 0.117165
H	 3.2787169696	 0.0852337008	 0.2983939033	 0.126534
H	 3.1630560149	-0.2119834464	-1.4403511223	 0.126203
H	 0.971694339	 1.7070878558	 1.5683507707	 0.119241
H	-0.5722872019	 2.0458264562	 0.7158188391	 0.119242
H	-1.4801576763	-1.8032256008	 2.7220772056	 0.226844
