19
gdb 56861	3.33066	0.95722	0.77364	2.6199	82.05	-0.2425	-0.0208	0.2217	1444.4741	0.156157	-385.869501	-385.859987	-385.859043	-385.904355	35.304	
C	 0.0696516907	 1.4773113514	-0.1428604953	-0.394399
C	-0.0070493514	-0.0517885855	 0.0366052182	-0.181779
C	 0.7503631107	-0.4822848614	 1.2117684047	 0.330612
C	 1.3561441823	-0.8280248597	 2.1911342394	-0.466514
C	-1.4617546016	-0.5417176273	 0.1206440976	 0.040362
C	-2.3220266675	-0.4229184631	-1.1788902888	-0.37453
C	-2.7176926506	-1.8972695977	-0.9861644489	 0.403344
O	-3.5509272889	-2.6001238712	-1.4782206194	-0.288431
C	-1.6926120825	-2.0852338418	 0.1417960433	-0.365388
H	 1.1075396932	 1.8069230683	-0.2342404611	 0.12944
H	-0.471398581	 1.7843037271	-1.0429745802	 0.120373
H	-0.3733439866	 1.9878536465	 0.7175007985	 0.128448
H	 0.4475263963	-0.5220694288	-0.8485979821	 0.101456
H	 1.8993629013	-1.1379920773	 3.0493367003	 0.197454
H	-1.9545272092	-0.0585709599	 0.9687920411	 0.090393
H	-3.1438009618	 0.2970448575	-1.1942658128	 0.130742
H	-1.7217729837	-0.2825669326	-2.0859714811	 0.128908
H	-0.8183349337	-2.6571935212	-0.1897631428	 0.135045
H	-2.0670278663	-2.5376203132	 1.0628300795	 0.134466
