18
gdb 26338	3.89804	1.09421	0.87233	1.414	76.08	-0.1678	0.0632	0.231	1309.0374	0.148036	-435.298221	-435.289042	-435.288098	-435.331958	33.942	
C	 0.0049317754	 1.3634630948	-0.0260353727	-0.324867
N	 0.0115872855	-0.0591964435	-0.2860363728	-0.15113
C	 1.1935675199	-0.7689393435	 0.1777206439	-0.333436
C	-1.2107740576	-0.6993679715	-0.121221982	 0.367836
C	-2.4480770937	-0.1483657185	 0.1076140917	-0.233206
N	-3.3304251167	-1.2413486429	 0.1047338361	-0.313437
C	-2.5774526309	-2.3392768959	-0.0972752073	 0.458617
O	-3.1507494314	-3.5551615977	-0.1356423859	-0.428387
N	-1.3043294678	-2.0787976105	-0.2397218493	-0.442134
H	 0.9760906458	 1.785858072	-0.2978406284	 0.118316
H	-0.760601471	 1.8495763936	-0.639804556	 0.1245
H	-0.1959165184	 1.6116613195	 1.032033893	 0.098935
H	 1.3142653439	-0.7301386334	 1.2745855926	 0.096959
H	 1.1241246501	-1.8141499792	-0.1222436288	 0.152914
H	 2.0828245692	-0.3241449761	-0.2799543497	 0.111017
H	-2.7944877425	 0.85612628	 0.2648920509	 0.117731
H	-4.3256392012	-1.2223564162	 0.239924498	 0.267896
H	-2.4357640085	-4.1821330511	-0.3007291531	 0.311876
