21
gdb 41969	2.3858	2.00929	1.59187	1.4587	79.48	-0.2205	0.0731	0.2936	957.4823	0.187051	-387.08984	-387.08278	-387.081836	-387.121183	29.305	
C	-0.0914834989	 1.4292026745	-0.2411776546	-0.241962
C	 1.3028743841	 1.9940422727	 0.1413463573	-0.209173
C	 1.9894753802	 0.9332770917	 1.0452480404	-0.023655
C	 1.7954204577	 1.1788677194	 2.5518522637	-0.226449
C	 0.3164812287	 1.1904039002	 2.9250703564	-0.059926
O	-0.4072906527	 0.0403861488	 2.4904808159	-0.268677
C	 0.0171473737	-0.6475844676	 1.3485609298	 0.122418
C	 0.0167838613	-0.0839714802	-0.0536718722	-0.082025
C	 1.3283800796	-0.3963328736	 0.6605464535	-0.119281
H	-0.8889489174	 1.8481357065	 0.3815388514	 0.111403
H	-0.3460744969	 1.6720062197	-1.2766499299	 0.095894
H	 1.8982060002	 2.1132313376	-0.769835278	 0.099125
H	 1.2502155372	 2.9804207955	 0.6148227663	 0.091659
H	 3.0619561405	 0.8951443116	 0.8345704965	 0.069051
H	 2.3131656892	 0.3918234625	 3.1133921287	 0.100322
H	 2.2350257845	 2.1370079208	 2.8530161473	 0.094363
H	 0.1939226622	 1.2194487197	 4.0129518833	 0.102722
H	-0.1585407631	 2.0973797807	 2.5240422421	 0.094429
H	-0.3019477215	-1.6821457706	 1.4368891121	 0.09325
H	-0.3533127058	-0.7307547092	-0.8422190962	 0.077774
H	 1.9573567472	-1.2361121308	 0.3857471162	 0.078738
