23
gdb 107670	2.995	1.26037	1.05656	1.0078	85.32	-0.2403	0.0845	0.3249	1255.2497	0.207302	-388.287746	-388.278935	-388.277991	-388.32088	34.754	
C	 0.2057939729	 1.2985026583	-0.2777407246	-0.249339
O	-0.2082103146	 0.0290051363	 0.1855985162	-0.286228
C	 0.5950301103	-0.5088282965	 1.2051632786	 0.44657
C	 1.8972784607	-1.1283861297	 0.76546163	-0.351101
C	 0.7152576326	-2.0081067869	 1.1451304574	-0.080518
C	 0.7488238148	-2.8470567854	 2.4226242582	-0.226369
C	 0.2884285845	-2.0729773297	 3.6683341872	-0.18348
C	 0.9256252354	-0.6808605738	 3.7327936066	-0.212585
C	 0.4632835427	 0.1857873011	 2.5509706523	-0.26663
H	 1.2551626013	 1.289540244	-0.6066835901	 0.104105
H	-0.4307492694	 1.5486131754	-1.1302618218	 0.1231
H	 0.0891959478	 2.0812210214	 0.4850963008	 0.10648
H	 2.1485334814	-1.0555913968	-0.2868543465	 0.109867
H	 2.7499369763	-1.1023158366	 1.4378259434	 0.105014
H	 0.200293155	-2.4519570165	 0.2995358838	 0.092842
H	 0.1190488225	-3.7329593274	 2.2905772479	 0.098247
H	 1.7672645175	-3.2226504634	 2.5867986581	 0.097433
H	-0.8035497037	-1.9588706647	 3.6462615213	 0.097302
H	 0.5258656856	-2.6480547138	 4.5701593195	 0.089362
H	 0.6603216238	-0.1793844928	 4.6697106223	 0.094532
H	 2.0199976519	-0.773642612	 3.7353904308	 0.09554
H	 1.0031789387	 1.1405715721	 2.5490360121	 0.091696
H	-0.6005018381	 0.4244476372	 2.6819160264	 0.104161
