18
gdb 54637	3.94057	1.12653	0.94636	3.7142	79.66	-0.2339	-0.0244	0.2094	1237.3132	0.14913	-401.986392	-401.978262	-401.977318	-402.019244	31.462	
N	-0.0512964194	 1.3264798447	 0.1255029617	-0.543151
C	 0.0232805604	-0.0438521656	 0.0742509173	 0.313142
O	 1.0927839403	-0.6296008721	 0.0982405372	-0.369255
C	-1.2839674207	-0.7475056279	 0.008313967	 0.215521
C	-1.3816296633	-2.0841041818	-0.0484921937	-0.136565
C	-2.7897631646	-2.5469245553	-0.0288379577	-0.077029
C	-3.5572494999	-2.1859357555	 1.2336747284	-0.274476
C	-3.6249934645	-1.2725749635	 0.0424683324	-0.043011
C	-2.6578279477	-0.0894061421	-0.0089851036	-0.363312
H	 0.8165945096	 1.8307263281	 0.0414454966	 0.257612
H	-0.9025240954	 1.817406167	-0.0857269927	 0.256316
H	-0.5219853672	-2.7425686781	-0.0728761328	 0.125801
H	-3.0907289939	-3.4224299073	-0.5924578036	 0.092866
H	-4.4441918295	-2.7700857387	 1.4556818685	 0.114402
H	-2.9823968199	-1.8831157311	 2.1030422334	 0.118732
H	-4.5668937335	-1.1980587845	-0.4873487226	 0.090154
H	-2.8030014983	 0.5960448655	 0.8362760448	 0.115146
H	-2.8067704626	 0.5016623381	-0.9239945508	 0.107106
