14
gdb 20243	3.35822	3.33511	2.66907	1.8071	57.55	-0.2057	0.0772	0.2829	600.8141	0.110117	-382.498798	-382.493994	-382.49305	-382.527407	20.748	
O	-0.0145004742	 1.4321293712	-0.0748995922	-0.242015
C	 1.3077429839	 1.8953852304	 0.0401269613	 0.047187
C	 2.0981864193	 1.3563761563	 1.1975892445	 0.047173
O	 1.426777179	 0.4493625379	 2.035873055	-0.242015
C	 0.8188196104	-0.506675283	 1.2036806339	 0.047187
C	 0.0285160823	 0.0322372662	 0.0460779025	 0.047173
C	 1.4455132338	-0.484025159	-0.1876487172	-0.165136
C	 2.2977791561	 0.7573619364	-0.1917922391	-0.165136
H	 1.4393685126	 2.9050818238	-0.3299283777	 0.106876
H	 2.8387056771	 1.9508587102	 1.7191006136	 0.106871
H	 0.5314705744	-1.4089390931	 1.7300873339	 0.106876
H	-0.8675770184	-0.4549156458	-0.3192324485	 0.106871
H	 1.7003896832	-1.3586193704	-0.7687976646	 0.099044
H	 3.2037129906	 0.831119659	-0.7761336455	 0.099044
