19
gdb 94472	2.9316	1.30102	1.18028	2.8889	70.96	-0.2453	0.0585	0.3038	1122.1621	0.159345	-460.14047	-460.13195	-460.131006	-460.174446	31.562	
O	 0.1202938881	 1.2211148227	-0.4456692582	-0.421176
C	 0.0741061551	-0.0902458437	 0.0532796431	-0.00786
C	-0.0292516219	-0.3109841118	 1.5771850758	-0.111693
O	-1.191118946	-1.144360911	 1.39752642	-0.321024
C	-1.3266413974	-0.7429998181	 0.0038651042	 0.380103
C	-2.5290662661	 0.1769696845	-0.2530271561	-0.266952
C	-3.5794343269	-0.8072204891	-0.7721878065	-0.090977
O	-2.839582307	-1.7209343817	-1.5744273291	-0.251748
C	-1.6007557693	-1.9478923469	-0.9191460254	-0.135012
H	 1.0386190155	 1.5013397293	-0.5005441987	 0.292387
H	 0.8389855218	-0.7259394258	-0.4117645258	 0.079691
H	 0.7857645957	-0.8436506617	 2.0797041596	 0.100793
H	-0.2576029996	 0.6168734223	 2.1186816103	 0.101119
H	-2.8245406393	 0.7129852264	 0.6507453629	 0.110165
H	-2.2700728806	 0.9040357067	-1.0275016615	 0.126763
H	-4.0748237489	-1.3289709855	 0.0627222506	 0.096502
H	-4.3473766694	-0.3533580247	-1.4034866047	 0.108074
H	-0.8298956721	-2.0805388613	-1.6858119236	 0.103641
H	-1.6342397316	-2.8510835308	-0.2920000169	 0.107206
