16
gdb 34978	4.23816	1.35597	1.29846	2.7837	71.45	-0.2607	0.0226	0.2834	975.8828	0.127063	-400.718338	-400.711957	-400.711013	-400.749166	25.865	
N	-0.2058415795	-1.2379983357	-0.1443286924	-0.334863
C	-0.1262420988	-0.086474997	-0.0721019796	 0.270419
C	-0.0133407566	 1.3605615364	 0.0236200422	-0.156993
C	-0.1301532599	 2.061254414	 1.4172131215	-0.106327
C	 0.9605231747	 1.3433173687	 2.2352155788	-0.225219
C	 2.1050666998	 1.8778743885	 1.3535386852	 0.071735
O	 1.9947894152	 3.3155739737	 1.5984980939	-0.286606
C	 0.8111611182	 3.2191734038	 0.8126986532	 0.096906
C	 1.365286436	 2.0551797107	-0.0342125512	-0.088897
H	-0.6823930684	 1.8231867507	-0.7084837034	 0.126466
H	-1.1028081043	 2.2496821195	 1.8644966211	 0.0889
H	 1.0645143757	 1.7138587286	 3.2559220447	 0.119115
H	 0.8461361959	 0.2574300185	 2.2411238673	 0.132049
H	 3.1156453782	 1.4880663647	 1.4521379838	 0.096698
H	 0.3871281227	 4.1566846917	 0.4584943415	 0.098398
H	 1.9544555512	 2.1704057634	-0.9404577465	 0.09822
