23
gdb 60382	2.79274	0.96446	0.89206	1.2427	82.56	-0.242	0.0848	0.3268	1478.3151	0.202245	-425.409577	-425.398795	-425.39785	-425.446032	39.304	
C	 0.404566712	 0.8110279436	 0.8972211367	-0.384389
C	 0.2261575683	-0.1290824665	-0.2969978856	 0.136707
C	-1.2417124105	-0.4279010969	-0.578247179	-0.389665
O	 0.7565306147	 0.4751074072	-1.4883371523	-0.264293
C	 2.1448908616	 0.3050435871	-1.6852939466	-0.145527
C	 2.4876663686	-1.0161511622	-2.353379504	 0.40794
C	 1.7938953888	-1.2982922648	-3.6657167572	-0.458609
C	 3.7794039895	-1.6450004086	-2.0419435232	-0.230763
O	 2.5747988181	-2.1389821734	-1.4528309439	-0.270303
H	 1.4595848016	 1.0450564161	 1.0696140967	 0.112884
H	-0.1293298347	 1.7507218967	 0.7224953035	 0.118882
H	 0.012988979	 0.3527767384	 1.8112796137	 0.112667
H	 0.7579445097	-1.069203768	-0.105097856	 0.102787
H	-1.7741957489	 0.4946564354	-0.8316535512	 0.120289
H	-1.3410929086	-1.1221941655	-1.4168642638	 0.119351
H	-1.7201283781	-0.8729546781	 0.2994250433	 0.111893
H	 2.4664166495	 1.1285315601	-2.3354940223	 0.103561
H	 2.7024363284	 0.3853808826	-0.7417279701	 0.09131
H	 2.1025811596	-0.5751018311	-4.4286177359	 0.119499
H	 2.0336121755	-2.3042920185	-4.0175728518	 0.123338
H	 0.7110391509	-1.2120204979	-3.5444277521	 0.141341
H	 4.2437249301	-2.3022211986	-2.7762154304	 0.111957
H	 4.4732732149	-1.161335237	-1.3544956386	 0.109142
