17
gdb 67867	2.63174	1.69782	1.40011	2.3468	74.73	-0.2396	-0.0037	0.2359	981.5958	0.137736	-418.012556	-418.004848	-418.003904	-418.044526	30.085	
N	-0.074200181	 1.4148852466	-0.0414981383	-0.600255
C	-0.0002393582	-0.025629434	 0.0253771145	 0.173544
C	 0.7703360531	-0.7369395051	-1.0656115794	-0.152802
C	 0.0868254702	-1.7417380763	-1.6135897993	-0.059797
C	-1.2830612541	-1.9290320823	-0.9984930219	-0.295829
C	-1.2931433855	-0.9080274333	 0.1355124505	 0.096173
O	-0.7786445832	-1.4640412054	 1.4002364577	-0.277549
C	 0.2806443762	-0.5900116393	 1.4103424166	 0.408856
N	 1.1357108118	-0.3206888017	 2.2869300119	-0.560312
H	 0.521650174	 1.8217750593	 0.6722998803	 0.251691
H	 0.2363703505	 1.7590090928	-0.9429373652	 0.230178
H	 1.776511671	-0.4312666834	-1.3298733108	 0.10567
H	 0.4567398814	-2.3830575483	-2.406066388	 0.1048
H	-2.0880428413	-1.7543766771	-1.723457767	 0.115678
H	-1.429362285	-2.9397956068	-0.5993260659	 0.130905
H	-2.2317404281	-0.3846352203	 0.3151345828	 0.099654
H	 0.999874068	-0.8732281253	 3.1348783516	 0.229393
