22
gdb 52872	1.98039	1.13426	0.9173	1.8207	91.9	-0.2266	0.0442	0.2707	1459.8556	0.191736	-367.175251	-367.164249	-367.163305	-367.21331	39.139	
C	 0.1017400616	 1.4581087795	 0.2913291178	-0.502754
C	 0.0872099619	 0.0051816912	 0.1982628641	 0.086486
C	 0.0712244148	-1.1986936158	 0.1283698912	 0.025019
C	 0.057239953	-2.6376425294	 0.0150656457	 0.155479
C	-0.7106598758	-3.3988777761	 1.0484160677	-0.280986
N	-1.2377843374	-3.2877950443	-0.3183119925	-0.358854
C	 1.2705916763	-3.2883918945	-0.6513262097	-0.017847
C	 1.3963069443	-2.8467398717	-2.1143748778	-0.398831
C	 2.554719005	-3.0198516665	 0.142740579	-0.397873
H	 1.1275134828	 1.8398237271	 0.3399717302	 0.151232
H	-0.3821025468	 1.9209335503	-0.5761148306	 0.149167
H	-0.4220353134	 1.8054476372	 1.1888265994	 0.148695
H	-0.3711481552	-4.3932476612	 1.327519098	 0.117721
H	-1.1884841596	-2.8361509592	 1.8447262163	 0.116708
H	-1.9690517038	-2.5813725658	-0.3447564243	 0.234401
H	 1.0676404209	-4.3662733205	-0.639185413	 0.080173
H	 2.225659676	-3.3644537858	-2.6068593599	 0.10602
H	 0.4774818477	-3.0706995834	-2.6641120536	 0.124883
H	 1.5819946534	-1.7695274497	-2.1830191991	 0.118598
H	 2.4642764404	-3.3645755439	 1.1781830263	 0.110078
H	 3.4056562263	-3.5361363043	-0.3126949151	 0.109848
H	 2.7826386176	-1.9490180333	 0.1654192499	 0.122639
