13
gdb 131235	4.39298	0.98171	0.85679	2.6158	65.36	-0.245	-0.0252	0.2199	1257.6848	0.090206	-448.925308	-448.917615	-448.916671	-448.958625	27.406	
O	 0.4544842452	 1.2794072978	-0.1242353971	-0.420195
C	 0.1663047726	-0.0308533354	-0.0948166667	 0.383645
C	 0.4660973157	-0.9853277514	-1.0391645349	-0.192956
N	-0.0540471961	-2.1228525154	-0.496223381	 0.074925
C	-0.0880175318	-3.4674853755	-1.0345709865	-0.27548
C	 1.2492712583	-4.001989266	-1.3135851966	 0.273065
N	 2.2947231685	-4.4256920888	-1.5585520341	-0.286921
N	-0.6315484018	-1.8847374365	 0.6910419525	-0.138498
N	-0.4985304363	-0.6078984272	 0.9356240229	-0.274767
H	 0.1117656347	 1.6616767706	 0.6940053326	 0.312906
H	 0.9849913917	-0.9577275301	-1.9804840869	 0.165496
H	-0.5901376545	-4.0832364527	-0.2839428135	 0.198747
H	-0.681834686	-3.4973232194	-1.9550087207	 0.180033
