19
gdb 13680	5.28518	0.85599	0.80465	2.8375	73.75	-0.2333	-0.0213	0.2119	1432.7941	0.163236	-365.040203	-365.03106	-365.030116	-365.075166	31.909	
C	 0.2188812869	 1.5135390919	-0.5291652162	-0.413964
C	 0.0492976852	 0.0721639612	-0.0997352193	 0.029457
C	 1.2229658515	-0.825275535	 0.100387635	-0.25512
N	 0.3960974484	-0.422023374	 1.2365434774	-0.081499
C	 0.9849703778	 0.478764545	 2.2177707272	-0.150362
C	 1.6413314221	-0.341183329	 3.3395778091	-0.263298
C	 2.0730553281	 0.5294368974	 4.4950867744	 0.154762
O	 3.1931704355	 0.5991384607	 4.9312041178	-0.236003
H	 1.1862153176	 1.9298577281	-0.2382994837	 0.122888
H	 0.1457947376	 1.5831022032	-1.6195359447	 0.126383
H	-0.5674037955	 2.1488049754	-0.1062235222	 0.124284
H	-0.8666478428	-0.3845484663	-0.4733567609	 0.092901
H	 1.1853401357	-1.8766053319	-0.1725357456	 0.115822
H	 2.208186997	-0.3679748837	 0.0050116941	 0.107491
H	 1.7328616796	 1.1675045154	 1.7927169147	 0.097393
H	 0.1801513183	 1.0961730305	 2.6370687006	 0.106741
H	 0.8971513435	-1.0594820522	 3.7093804317	 0.130528
H	 2.5062527136	-0.8989217618	 2.9704341239	 0.12205
H	 1.24911468	 1.1361624351	 4.9419362167	 0.069544
