20
gdb 50530	2.25533	1.39593	0.95805	3.4213	80.48	-0.2345	-0.0131	0.2214	1262.3252	0.170302	-403.110436	-403.101591	-403.100647	-403.144941	32.552	
O	 0.0004964269	-0.0581350128	 0.1405061634	-0.264777
C	-0.0011964873	 1.1467662962	 0.1294842692	 0.185593
C	 1.2415227199	 1.9957514108	 0.0282337853	-0.128361
C	 1.0533886282	 3.2315833768	-0.9116578752	-0.244187
C	 0.7771564892	 4.1185754037	 0.3305448559	-0.245469
C	 1.3844840777	 3.0055729231	 1.2193904324	 0.070306
N	 0.661486998	 2.6687270004	 2.4276024622	-0.06322
C	 1.4018725115	 1.9101563802	 3.4352807698	-0.22197
C	 1.0905023413	 3.3490042574	 3.648431371	-0.2293
H	-0.95558874	 1.7171440367	 0.1780885528	 0.075502
H	 2.0937073584	 1.3401794265	-0.1581928943	 0.085472
H	 1.9840081812	 3.4889562541	-1.4215694738	 0.114221
H	 0.2589227281	 3.1595637296	-1.6585385737	 0.110654
H	 1.2445106204	 5.1047979746	 0.3681775027	 0.101362
H	-0.2918853876	 4.2256565892	 0.5314071133	 0.117977
H	 2.4545882133	 3.1960539921	 1.4107622147	 0.06095
H	 0.8370581903	 1.139069236	 3.9497246995	 0.126922
H	 2.4366837714	 1.6507185977	 3.2185207657	 0.114844
H	 1.9172197389	 4.0537644582	 3.5723879262	 0.111891
H	 0.2957821004	 3.6494590893	 4.3245391528	 0.121591
