23
gdb 89155	2.24621	1.43674	1.1776	1.3228	85.29	-0.2456	0.0753	0.3209	1205.1422	0.204997	-388.272682	-388.263203	-388.262259	-388.306342	37.086	
C	 0.2771510653	 1.5762406461	-0.0938743547	-0.416616
C	 0.1302737254	 0.0672356128	 0.0422007135	 0.000152
C	 0.9618648126	-0.8763723775	-0.8777724964	-0.262238
C	 1.2545478398	-1.8081642722	 0.3327567896	-0.087346
C	 2.6441209139	-1.6278515632	 0.9586310702	 0.142885
O	 3.6999111471	-1.5412251949	 0.026303718	-0.433279
C	 2.1566078801	-0.3289336812	 1.6693697423	-0.347218
C	 0.681451339	-0.6864543187	 1.2874256943	 0.366047
C	-0.2608851657	-0.9562781036	 2.4411661492	-0.49824
H	 1.3239722479	 1.8924852809	-0.0386749901	 0.114494
H	-0.1139132516	 1.9173601179	-1.0590754396	 0.113997
H	-0.2746005402	 2.1064173227	 0.6910412926	 0.110255
H	-0.9320946048	-0.1919042204	-0.0519070859	 0.063336
H	 0.4126021551	-1.3345645128	-1.7028568832	 0.09393
H	 1.8691780418	-0.4212070362	-1.2824114238	 0.114202
H	 0.8435467602	-2.8176671047	 0.2781725803	 0.055674
H	 2.8391915489	-2.4221506465	 1.6942567429	 0.062592
H	 4.5126723293	-1.3577984449	 0.5078544096	 0.28134
H	 2.3599236589	-0.2700005648	 2.7420679364	 0.091858
H	 2.5390309997	 0.576993819	 1.1926117323	 0.09862
H	-0.5089639819	-0.0290189356	 2.9734269422	 0.114242
H	-1.2006125376	-1.3993076922	 2.0920800444	 0.111287
H	 0.1803424967	-1.6433655698	 3.1726519159	 0.110027
