17
gdb 45370	2.82179	1.66369	1.48759	2.2431	66.67	-0.2459	-0.021	0.2249	937.8282	0.138001	-458.997182	-458.99018	-458.989236	-459.028893	27.399	
O	 0.0310373474	-0.083735062	-0.2185439331	-0.302423
C	 0.0121720807	 1.107833902	-0.0314640678	 0.384248
C	-1.2960546042	 1.8880620091	 0.120232441	-0.315751
C	-1.1369652799	 3.078767892	 1.0812503535	 0.038101
C	-0.6591905063	 2.6632162637	 2.4816093452	-0.091516
O	 0.7622722483	 2.5933019171	 2.3339233304	-0.274439
C	 1.0765723778	 3.107734928	 1.042557753	 0.181123
C	 1.285722027	 1.9476099232	 0.0599575396	-0.320972
O	-0.035008363	 3.8793190956	 0.6426886031	-0.249934
H	-1.5636889386	 2.281911988	-0.8685920295	 0.135275
H	-2.0860173881	 1.1984212391	 0.4298014141	 0.126453
H	-2.0287637701	 3.70741623	 1.0968503452	 0.097704
H	-0.9176618626	 3.4174993322	 3.2342627157	 0.111352
H	-1.0457590403	 1.6899189471	 2.8005018195	 0.118928
H	 1.9490379423	 3.762647212	 1.116241469	 0.098559
H	 2.1154421637	 1.3047204213	 0.3621961673	 0.133924
H	 1.512084966	 2.3591593715	-0.9318628964	 0.129367
