22
gdb 106564	1.96623	1.58813	1.18332	1.5098	83.2	-0.2357	0.0842	0.3199	1206.3713	0.192944	-404.268191	-404.258437	-404.257493	-404.302694	36.211	
C	 0.3890758033	 2.110167756	-1.0112586801	-0.26469
O	 0.2101648987	 0.805205131	-0.4926815721	-0.284256
C	 0.7118856113	-0.1972951262	-1.2988584589	 0.367267
C	 2.1550605447	-0.4530797935	-1.8106641591	-0.252835
N	 1.3759415259	-1.6702802075	-2.3296363102	-0.173064
C	 0.6862296529	-1.6935069308	-0.9382576193	 0.026822
C	 1.4299202302	-2.2933041064	 0.2403088559	-0.44514
C	 0.2941557312	-0.6414263071	-2.7383325319	 0.021167
C	-1.0886913128	-1.1301962956	-3.126743832	-0.446179
H	 1.4532293214	 2.3502084452	-1.1464898764	 0.113119
H	-0.1221903993	 2.2390113253	-1.9758613113	 0.111821
H	-0.0414949293	 2.8055638386	-0.2878664886	 0.130431
H	 2.5392646135	 0.1807643754	-2.6138665914	 0.097381
H	 2.9402298671	-0.6951189643	-1.0967297743	 0.103226
H	-0.2936769817	-2.1686013707	-1.0025345383	 0.070795
H	 2.3924389554	-1.826032213	 0.4555378336	 0.120377
H	 0.8110128063	-2.2017827483	 1.1389441168	 0.126944
H	 1.603581171	-3.3597600285	 0.0623763754	 0.128935
H	 0.6863079832	-0.0045969806	-3.5385093353	 0.068704
H	-1.6251531944	-1.6516937235	-2.3318464422	 0.126267
H	-1.7019083365	-0.2747397779	-3.4288939134	 0.120886
H	-1.0159098223	-1.8060188376	-3.9854223572	 0.132023
