13
gdb 130928	4.65348	0.9764	0.8778	3.199	67.91	-0.2652	-0.1028	0.1625	1238.5533	0.087387	-448.87361	-448.865862	-448.864918	-448.907418	26.556	
O	-0.4365897624	 0.7046656041	 0.8747074416	-0.212965
C	 0.0941536643	 1.0181037785	-0.1534834454	 0.157215
C	 1.4215316322	 1.7855076047	-0.2178316955	-0.370017
C	 1.3741679077	 2.8909056363	-1.2288876511	 0.340857
C	 1.3979077175	 4.2472873009	-0.901334541	-0.013864
N	 1.3495498609	 5.1711533148	-1.8461334425	-0.154518
N	 1.2519009898	 4.7743606003	-3.1157391758	-0.050271
N	 1.2036452827	 3.5016848368	-3.4327856141	-0.056354
N	 1.2728626884	 2.5458564789	-2.5107967363	-0.224398
H	-0.3279981707	 0.7629077545	-1.1476355246	 0.1203
H	 1.6698280168	 2.1487836618	 0.7812304711	 0.143032
H	 2.180745107	 1.0581606272	-0.5333160489	 0.169186
H	 1.4651475158	 4.5988579513	 0.1249431723	 0.151796
