21
gdb 112670	2.95969	1.1426	0.93203	3.9515	80.07	-0.2292	0.061	0.2902	1343.5561	0.183864	-420.468231	-420.458741	-420.457797	-420.502648	34.816	
C	 0.0605803642	 1.479838003	 0.1515434782	-0.395556
C	-0.0487149727	-0.0457832426	 0.0849033471	-0.174198
C	-1.4811609568	-0.5547895013	-0.1456459054	 0.023689
C	-1.5721411948	-2.1013762568	-0.1260728871	-0.183571
N	-1.9432846029	-2.3779463687	 1.2475600909	-0.099477
C	-2.2181833376	-3.7121882394	 1.7201440065	-0.337895
C	-2.5370169863	-1.2722462793	 1.8344797698	 0.44605
O	-3.0705197516	-1.2295005667	 2.9231519116	-0.427173
N	-2.4122399225	-0.2245659728	 0.9293339276	-0.35852
H	 1.1011479462	 1.7930532625	 0.2755928285	 0.123126
H	-0.3208736932	 1.9467640962	-0.7636889726	 0.118281
H	-0.5014300856	 1.8912616785	 0.9969614426	 0.116842
H	 0.5767733749	-0.4195003424	-0.7359461952	 0.098772
H	 0.3394738433	-0.4937030405	 1.007967306	 0.112833
H	-1.8505762361	-0.1610853964	-1.0997375688	 0.084525
H	-2.3357700647	-2.4675780969	-0.8307161137	 0.10062
H	-0.6173440166	-2.569780318	-0.390155016	 0.108606
H	-1.3058973738	-4.319288421	 1.7299379035	 0.118618
H	-2.6058730583	-3.6282115686	 2.7369908017	 0.163465
H	-2.9659279923	-4.2243984994	 1.0959139573	 0.112245
H	-2.4560662828	 0.7068263607	 1.3107772976	 0.248717
