17
gdb 47404	2.77679	1.56033	1.19729	3.3233	68.16	-0.2478	-0.0374	0.2104	1046.6349	0.135774	-458.958401	-458.950483	-458.949539	-458.991636	29.068	
O	-0.1060295956	 0.0121967952	-0.0069385742	-0.306187
C	-0.099197204	 1.2142450596	 0.0152932965	 0.330869
C	-1.2982494656	 2.1587562427	 0.0829828503	-0.341998
C	-0.6385524969	 3.4890607189	 0.4496169506	-0.108325
O	 0.6870218979	 3.4199407817	-0.095944552	-0.298296
C	 1.1488761244	 2.093846134	-0.0161415863	 0.243254
C	 2.2392342653	 1.7689028363	 1.0484263291	-0.114178
O	 3.1865188476	 1.4095790759	 0.0289412428	-0.265841
C	 2.2580873573	 1.7282022775	-1.0228418087	-0.115407
H	-1.7542861714	 2.1998759047	-0.9131214149	 0.146365
H	-2.0513915552	 1.8000756266	 0.7865695275	 0.139866
H	-1.1228459611	 4.3650985116	 0.0146904314	 0.124066
H	-0.5964896446	 3.6222736913	 1.540687424	 0.107242
H	 2.547857375	 2.6513496325	 1.6219474019	 0.110154
H	 2.0196915324	 0.9309107075	 1.7197261101	 0.114543
H	 2.0434274144	 0.8631596187	-1.6601671339	 0.118501
H	 2.5789274802	 2.5832768753	-1.628937214	 0.115373
