12
gdb 21861	3.57853	2.36461	1.4238	1.442	61.91	-0.2384	-0.0632	0.1752	785.7113	0.085193	-414.65203	-414.645889	-414.644945	-414.682278	23.491	
O	 0.0740520703	 1.3156211328	-0.1670385062	-0.397933
C	-0.0206056448	-0.002139154	-0.044003059	 0.360387
C	-1.1695535442	-0.7020122645	 0.0779772111	-0.265996
C	-1.047803162	-2.1235264951	 0.1991432308	 0.057757
N	 0.0409583468	-2.8160207302	 0.205103434	-0.100329
O	 1.2366798039	-2.0720090688	 0.0767439959	-0.272454
C	 1.2570861641	-0.7228110231	-0.0452905629	 0.363668
N	 2.3235626329	-0.034511919	-0.1618187631	-0.577512
H	 1.0376807573	 1.4898801219	-0.2323983298	 0.317673
H	-2.1395028562	-0.2232102848	 0.0850475517	 0.130022
H	-1.9371955703	-2.7394921855	 0.3002147797	 0.143044
H	 3.1693396322	-0.6003128395	-0.1546208522	 0.241674
