19
gdb 63876	2.60059	1.41134	1.21207	2.1168	76.85	-0.2455	-0.0294	0.216	1112.6007	0.156386	-423.006607	-422.997629	-422.996685	-423.039776	34.156	
C	-0.0519644812	 1.5753986281	-0.1808751703	-0.432641
C	 0.0033107387	 0.0710284505	 0.0329903758	 0.335857
C	-1.3117780592	-0.6078320811	-0.3293585414	-0.428998
O	 1.0808153296	-0.5526442129	-0.7587000573	-0.320602
C	 1.6350525867	-1.152641385	 0.3954177139	 0.080459
C	 2.1273374598	-0.1646998361	 1.3750520103	-0.358987
C	 0.6310170128	-0.4560138547	 1.3415191257	 0.122884
C	-0.0499283882	-1.0517893702	 2.4972674715	 0.060279
O	 0.5182301823	-1.5107172357	 3.4639909795	-0.283459
H	 0.8926181438	 2.0560478798	 0.0811148186	 0.124511
H	-0.2662279247	 1.796764063	-1.2311875163	 0.129964
H	-0.8462457272	 2.0167596926	 0.429932404	 0.123056
H	-1.5357772127	-0.4228187072	-1.383965633	 0.131002
H	-1.2517096603	-1.6884869909	-0.1755761677	 0.125886
H	-2.1396230268	-0.2141701828	 0.269467384	 0.120943
H	 1.9190452065	-2.1981726978	 0.3504428419	 0.12345
H	 2.5957724638	-0.5733019519	 2.2645731604	 0.151261
H	 2.5023662875	 0.7933071185	 1.0305734493	 0.124635
H	-1.1593615712	-1.0743282962	 2.4282847112	 0.0705
