21
gdb 56908	2.28173	1.2695	1.00762	4.1052	83.75	-0.2446	0.0304	0.2749	1297.2801	0.179962	-383.265737	-383.255444	-383.2545	-383.300806	37.796	
C	-1.9066122809	 0.7643362648	 1.7345996259	-0.38954
C	-1.2236389022	-0.3400903165	 0.9135266645	-0.104124
C	-0.8801917332	 0.1502851436	-0.4327038683	 0.302015
N	-0.6253388214	 0.5280170423	-1.4943707557	-0.330888
N	-0.0003434814	-0.7649173586	 1.5912407264	-0.109616
C	-0.1211562484	-1.8476340939	 2.5703665131	-0.297119
C	 0.6242109839	-2.0664799393	 1.294017674	 0.338591
C	 0.0400305377	-3.0002387857	 0.2488518796	-0.467351
C	 2.1393182373	-2.0155240402	 1.3004508645	-0.440185
H	-1.2232173845	 1.6040081078	 1.8761179013	 0.147743
H	-2.8112583638	 1.1170986711	 1.2332201434	 0.133226
H	-2.1803633485	 0.3662396119	 2.7152954264	 0.127816
H	-1.9453248645	-1.1616956341	 0.7729290311	 0.106482
H	 0.4039019848	-1.6944476543	 3.5098412333	 0.117171
H	-1.0904924331	-2.3362845295	 2.6703104846	 0.106572
H	-1.0463535762	-3.0933928522	 0.3174581226	 0.118219
H	 0.2928586308	-2.6623017226	-0.7617638229	 0.144523
H	 0.4599283456	-4.0031329555	 0.3776723117	 0.126204
H	 2.5599204146	-3.0011301516	 1.5286505376	 0.114574
H	 2.5181903022	-1.7050691288	 0.3206302783	 0.129207
H	 2.4979002714	-1.2997364786	 2.0435169485	 0.12648
