14
gdb 131406	6.05781	0.95408	0.87141	2.4019	66.	-0.2534	-0.0215	0.2318	1259.3682	0.101042	-473.79064	-473.78322	-473.782276	-473.823292	27.326	
O	 0.4126765457	 1.3144710739	-0.0423909715	-0.417163
C	 0.111540387	 0.0123225155	 0.05756203	 0.481342
N	-0.4323764346	-0.6538947844	-0.9327240605	-0.251833
O	-0.5887573421	-1.9557130771	-0.4462133405	-0.2232
C	-0.1269549721	-2.012825643	 0.8152818428	 0.49289
C	 0.3349263904	-0.7949707701	 1.2063795347	-0.461439
C	-0.2088829649	-3.3017328652	 1.5217329151	-0.048118
C	-1.1510988539	-4.3586562671	 1.1147959187	-0.173598
O	 0.2366653855	-4.465510208	 0.8149654684	-0.220345
H	 0.1637172693	 1.6070719331	-0.9295982326	 0.314014
H	 0.7712268691	-0.5074437336	 2.1473443783	 0.13212
H	 0.108200657	-3.2519167185	 2.561841895	 0.110944
H	-1.5271413047	-5.0479107424	 1.869479171	 0.123761
H	-1.8006089716	-4.1834734431	 0.260234101	 0.140625
