15
gdb 129410	5.19334	1.05076	0.87459	12.6499	73.86	-0.1945	-0.0132	0.1813	1235.1353	0.113204	-446.296056	-446.287878	-446.286934	-446.329113	30.174	
N	-0.1563577897	 0.3403197909	 1.5100396001	-0.527783
C	 0.0149125864	-0.1491639976	 0.2936400392	 0.523642
N	 1.1920082766	-0.7391313559	-0.0830745202	-0.571328
H	 1.3532269593	-0.8685936254	-1.0697611519	 0.273729
H	 2.016024454	-0.4544155119	 0.4231143773	 0.277439
N	-0.9998394427	-0.1042325143	-0.5715628135	-0.41129
C	-2.2906941809	 0.3870249437	-0.259871425	 0.38328
C	-3.4369150434	 0.463437498	-1.0261413361	-0.199627
N	-4.3839250976	 1.0164176999	-0.2342107497	-0.207232
N	-3.8460305538	 1.265318567	 0.9514913121	-0.165635
N	-2.5594193874	 0.8890253678	 0.9618353401	-0.319944
H	 0.5572518645	 0.2175777088	 2.2081107202	 0.263526
H	-1.1624802826	 0.7012927808	 1.6906913267	 0.327764
H	-0.8568887568	-0.4629034204	-1.5016617432	 0.271879
H	-3.628614756	 0.1679108785	-2.0463820062	 0.081582
