17
gdb 14248	3.46284	1.84166	1.7232	3.773	67.78	-0.2382	-0.0005	0.2377	847.3476	0.142935	-363.855822	-363.848651	-363.847707	-363.887306	27.325	
C	-0.0018424351	 1.5827210808	-0.0702232477	-0.411894
C	 0.0129206328	 0.0615428786	 0.0102562173	 0.003706
C	 1.0537679888	-0.6723306751	-0.8987307549	-0.205433
N	 1.7570045595	-1.1971620827	 0.3176268641	-0.130866
C	 0.7160902631	-0.613652883	 1.2370647532	 0.00667
C	 1.8240260839	 0.1174254151	 2.0287397349	-0.38883
C	 2.7514652953	-0.3509799772	 0.8817100703	 0.382122
O	 3.8426887221	-0.0614890565	 0.486349221	-0.317974
H	 1.0051383298	 2.0062270087	 0.0027683918	 0.130211
H	-0.4243380314	 1.911346926	-1.0255246794	 0.124565
H	-0.6097578831	 2.016376803	 0.731158562	 0.122256
H	-1.0023089951	-0.3218343586	-0.1235853222	 0.083123
H	 0.6446499883	-1.4793970677	-1.510935142	 0.117539
H	 1.6935843813	-0.0390316643	-1.5201172353	 0.127765
H	 0.1060930577	-1.3264176077	 1.7953754885	 0.08428
H	 1.7582142732	 1.2022053837	 2.1288355611	 0.136639
H	 2.0401170088	-0.3170068334	 3.0081014773	 0.136122
