19
gdb 79932	2.41952	1.59336	1.29243	1.6435	76.25	-0.2127	0.0553	0.2679	1082.1763	0.159495	-419.225259	-419.21641	-419.215466	-419.258273	33.878	
C	-0.0753691058	 1.54338085	-0.0080570034	-0.417824
C	 0.0850998037	 0.0410779821	 0.0142046793	-0.090828
C	 1.4110387643	-0.6804963206	-0.2288871465	-0.088049
N	 2.6333430206	 0.0659050618	-0.0654106521	-0.339237
C	 2.6381273426	 0.4426657565	 1.1576206834	 0.435238
N	 3.542144526	 1.2764142712	 1.761847898	-0.583062
O	 1.6170944338	 0.0445604884	 1.9695592757	-0.272401
C	 0.7412479416	-0.7264806534	 1.1365809567	 0.375012
C	 0.1279745323	-1.8892987399	 1.8576129796	-0.474432
H	 0.831964259	 2.0584410307	 0.3127867326	 0.141625
H	-0.3061378141	 1.8868055675	-1.0217314686	 0.119078
H	-0.8918697994	 1.8605689821	 0.6495516439	 0.11509
H	-0.7605410895	-0.5037907046	-0.4013299706	 0.084527
H	 1.4450617744	-1.5179729024	-0.9174216013	 0.089241
H	 4.4073763548	 1.3654038646	 1.2510421898	 0.267705
H	 3.6551429164	 1.1319379085	 2.7541924023	 0.26118
H	-0.534357497	-1.5547577472	 2.6637633225	 0.1277
H	-0.4660816976	-2.4875416266	 1.1613700379	 0.124639
H	 0.8994257837	-2.5328514488	 2.2930273507	 0.124799
