16
gdb 33606	5.1766	1.30037	1.28413	1.6645	80.37	-0.223	0.0308	0.2538	1002.6999	0.125167	-363.481427	-363.474855	-363.473911	-363.512158	27.269	
C	 0.0927687762	-1.2117320617	 0.0861086395	-0.358499
C	 0.0324888163	-0.0099490875	 0.0383848557	-0.029343
C	-0.0543433675	 1.3980560158	-0.0218850496	 0.363608
C	-0.052788384	 2.4890486943	 1.060347877	-0.149882
C	 0.9878398361	 2.4944106806	-0.0526626547	-0.092301
N	 0.3402088948	 3.2798337627	-1.1461371443	-0.150878
C	-0.3563345416	 4.4119412673	-0.4228893461	-0.184427
C	-1.1386478242	 3.3398671934	 0.3584594921	-0.076738
C	-0.8927960162	 2.3969078773	-0.8660318114	-0.093127
H	 0.149779348	-2.2709208427	 0.1267449086	 0.176469
H	 0.1768977852	 2.3808416817	 2.1109392001	 0.10476
H	 2.0589150669	 2.4320483128	 0.085121644	 0.105994
H	 0.302544448	 5.097260106	 0.1184324879	 0.105885
H	-0.9742506972	 4.9653898729	-1.1358925663	 0.111406
H	-2.0968747497	 3.4941501327	 0.8524503187	 0.076792
H	-1.5818507711	 2.1781537045	-1.678495401	 0.090281
