16
gdb 46672	2.89564	1.80457	1.36472	2.2322	69.54	-0.24	-0.0369	0.2031	932.549	0.125652	-437.791355	-437.784687	-437.783743	-437.822415	26.692	
O	-0.0092082923	 0.0091086696	 0.0758176137	-0.292946
C	 0.0281369009	 1.2058733896	 0.0289484694	 0.236498
C	-1.2273067117	 2.1549642025	 0.0729340273	-0.180442
O	-0.8151270184	 3.5162074446	-0.1566935656	-0.282885
C	 0.4505196927	 3.404994257	-0.7866233166	 0.09062
C	 1.8349454026	 3.9027079777	-0.2405006259	-0.086458
C	 1.5329568607	 3.1594573205	 1.0699449945	-0.227978
C	 1.1237990509	 2.2182061632	-0.1204513308	 0.211487
N	 2.4599750936	 2.591892586	-0.7552190415	-0.389559
H	-1.9214981352	 1.8190535672	-0.709572392	 0.138556
H	-1.7381019776	 2.0887820455	 1.0382027934	 0.144786
H	 0.3653244654	 3.3873637587	-1.8823429121	 0.076919
H	 2.3461702031	 4.8535037599	-0.3957785189	 0.094393
H	 2.4005916847	 2.8145378588	 1.6307154374	 0.12176
H	 0.727777045	 3.5503053049	 1.687052786	 0.128127
H	 2.3651500155	 2.5448222043	-1.7768552884	 0.217121
