18
gdb 52087	3.84175	1.04517	0.97149	3.6931	74.53	-0.2479	0.0266	0.2745	1256.7865	0.14706	-439.007673	-438.999391	-438.998447	-439.041546	30.677	
N	-0.5475475956	 1.0535024414	 0.0241457995	-0.44406
C	-0.7082170284	-0.1545255568	 0.347796437	 0.135139
O	-0.529714493	-1.1215794276	-0.5833725099	-0.180381
C	-0.820861028	-2.4534428051	-0.1766902526	-0.247798
C	-2.2942936057	-2.7358474373	-0.1738119264	 0.419495
C	-3.3807149813	-2.359167207	-1.214468201	-0.249995
C	-4.0603094096	-2.8893509897	 0.0683433751	 0.051205
C	-3.0484818208	-4.0590261889	 0.1250603208	-0.266942
O	-3.1190222279	-2.0734428744	 0.8751130767	-0.344547
H	-0.6977187132	 1.6494719399	 0.8356211354	 0.229346
H	-0.9801013776	-0.5421228233	 1.3365432438	 0.106381
H	-0.3214088124	-3.1045743158	-0.8993890046	 0.13082
H	-0.4060381056	-2.6614286175	 0.8190515068	 0.120146
H	-3.4931205169	-1.2910068687	-1.3962523693	 0.127854
H	-3.4496003012	-2.9629087074	-2.1225074301	 0.099307
H	-5.1100439391	-2.8693401822	 0.3577405359	 0.102733
H	-3.0880519108	-4.8162121139	-0.6618434986	 0.100887
H	-2.8781072928	-4.4767225956	 1.1180790613	 0.110411
