15
gdb 3329	6.29452	1.95604	1.79304	2.5552	56.26	-0.2443	0.0676	0.3119	728.096	0.125421	-345.599154	-345.592741	-345.591796	-345.629473	24.26	
O	 0.035633728	 1.3549418754	-0.2716929399	-0.4208
C	 0.0901413443	 0.0132734997	 0.1774166061	-0.078509
C	-1.2907731628	-0.6147922875	 0.129725953	 0.124523
O	-1.8674718987	-0.5297301899	-1.2143861098	-0.319168
C	-2.1761346162	-1.9280413033	-1.1765423454	 0.116537
C	-0.9348782352	-2.7542353936	-1.1142031974	-0.29883
C	-1.4895143833	-2.1299690301	 0.154286796	-0.15603
H	-0.3977789665	 1.3296568584	-1.1335423894	 0.294871
H	 0.7995706657	-0.5826635122	-0.4157153879	 0.087426
H	 0.4536622161	 0.0337507507	 1.2109769158	 0.109197
H	-1.9610254797	-0.0992641963	 0.8281163515	 0.09137
H	-3.1371369663	-2.2425913404	-1.5656908968	 0.108013
H	-1.086631555	-3.827587928	-1.1760247691	 0.118406
H	-0.022560683	-2.3939298184	-1.5788754345	 0.119753
H	-1.7844113874	-2.7117255147	 1.0163536978	 0.103242
