13
gdb 49355	1.85343	1.50259	1.11824	5.567	68.34	-0.285	-0.0647	0.2203	1106.8643	0.088032	-415.619665	-415.611265	-415.610321	-415.653504	28.974	
O	 0.0100368625	-0.0277197488	-0.3499855374	-0.240587
C	 0.0030154687	 1.0973529345	 0.0732343096	 0.164099
C	 1.235091725	 1.9500998305	 0.0789930364	-0.143502
C	 1.1359241412	 3.4525490758	-0.1672682396	-0.197136
C	-0.1367048241	 4.0757492927	-0.4150080962	 0.310793
N	-1.1486033297	 4.5901249625	-0.6322872169	-0.309757
C	 1.4884662035	 2.9338021614	 1.2174026095	-0.197135
C	 0.5560587139	 3.056378495	 2.3059467444	 0.310792
N	-0.1737653583	 3.1556917775	 3.196578595	-0.309756
H	-0.9112054108	 1.5711802982	 0.4834277256	 0.130292
H	 2.1094259109	 1.4560021401	-0.3287168033	 0.146084
H	 1.9565234563	 3.8920869832	-0.7241557914	 0.167907
H	 2.5256590409	 3.0546312774	 1.5112249543	 0.167907
