25
gdb 121393	3.86354	0.77778	0.6835	1.2834	89.63	-0.2412	0.0865	0.3277	1753.1486	0.230514	-389.51257	-389.50288	-389.501936	-389.547485	36.807	
C	 0.0471449147	 1.6249912999	-0.0307561274	-0.379109
C	-0.018532239	 0.0949281736	-0.0144441327	-0.177335
C	 0.6628648681	-0.5139821963	 1.2185185995	-0.178458
C	 0.7178107354	-2.0487674936	 1.246422944	 0.016499
C	 1.6116435785	-2.5632851234	 2.3886505264	-0.209873
C	 1.5782081378	-4.0950945822	 2.4696695429	-0.212387
C	 0.1301211058	-4.584257092	 2.5208976939	-0.062661
O	-0.6229365339	-4.1008047652	 1.4223805248	-0.247394
C	-0.6743311492	-2.6852743321	 1.3829288006	-0.073108
H	 1.0851486502	 1.9760914975	-0.0264280863	 0.113309
H	-0.4406048257	 2.0371943489	-0.9196059	 0.111259
H	-0.4480637729	 2.051942577	 0.8485940677	 0.113572
H	-1.0683078939	-0.2190856185	-0.0602314743	 0.100585
H	 0.4570182912	-0.3019596541	-0.9211960603	 0.096108
H	 1.6910749244	-0.1303744555	 1.2755017039	 0.089547
H	 0.1606993598	-0.1527197471	 2.1280975949	 0.089702
H	 1.1422968185	-2.4020078449	 0.2952384218	 0.072985
H	 2.6386505184	-2.2032621446	 2.2572997762	 0.091192
H	 1.25251614	-2.1413213155	 3.3389816616	 0.090678
H	 2.065180549	-4.5259014232	 1.5861613073	 0.101734
H	 2.1235985342	-4.4541046357	 3.3503207605	 0.090888
H	 0.0735935856	-5.6758635052	 2.4725949653	 0.102059
H	-0.3384156831	-4.2635067956	 3.4688542546	 0.079485
H	-1.1625790368	-2.2975788303	 2.2966886671	 0.076999
H	-1.3138418075	-2.435532442	 0.5322219777	 0.103725
