19
gdb 89696	3.48583	1.27698	1.13568	1.7846	82.51	-0.2377	0.0361	0.2738	1143.0744	0.158756	-385.83988	-385.831776	-385.830832	-385.872085	32.595	
C	-0.0917766076	 1.4993704913	-0.063075088	-0.412652
C	 0.0845804963	-0.0054075983	 0.0538609615	 0.158999
O	 0.9714993038	-0.5100161271	-0.9815004332	-0.341457
C	 1.954372975	-1.2413951285	-0.2151002419	 0.353642
C	 1.0846905331	-2.00651786	 0.8276516522	-0.275444
C	 0.8087850396	-0.5461938198	 1.3001125476	-0.119185
C	 2.297440553	-0.2536385276	 0.9384701065	-0.275752
C	 2.9410394711	-1.8689279283	-1.0552718787	 0.1235
C	 3.7837082298	-2.4083335804	-1.7206794542	-0.345517
H	 0.8457357385	 2.0357397738	 0.1051002755	 0.120126
H	-0.4522221645	 1.7558593502	-1.0635119742	 0.130926
H	-0.8303268044	 1.8515882469	 0.6652856731	 0.112516
H	-0.8937824877	-0.4918484539	-0.0623144363	 0.074258
H	 0.2532888602	-2.5927390099	 0.4296919195	 0.106268
H	 1.678530693	-2.5876812551	 1.5337378226	 0.10944
H	 0.381934204	-0.314032288	 2.2745412592	 0.077488
H	 2.9972431719	-0.6739686643	 1.6613998422	 0.110156
H	 2.59361916	 0.7550711351	 0.6471425136	 0.108074
H	 4.5241584048	-2.8816267561	-2.3168582869	 0.184611
