19
gdb 51665	4.20883	0.89476	0.83611	1.9885	75.85	-0.2472	-0.0232	0.224	1385.996	0.158698	-422.993922	-422.98546	-422.984516	-423.02857	30.747	
O	-0.1523634956	 0.0359638969	-0.0352699539	-0.238643
C	-0.0049617487	 1.230307063	 0.0108667347	 0.159769
C	 1.3268314106	 1.9410291509	-0.077686892	-0.302673
C	 1.3678947142	 2.9114581116	-1.2637633511	 0.007741
C	 0.5093634929	 4.2226708671	-1.206128192	-0.265067
C	 1.7827646845	 5.0530381846	-1.4824551363	 0.125452
O	 2.4155193478	 5.514781871	-0.2720620936	-0.289724
C	 3.3195705781	 4.384749566	-0.2598339108	-0.08266
C	 2.6537535128	 3.7632973995	-1.4984115845	-0.113015
H	-0.8835255041	 1.9087325174	 0.1155945503	 0.076901
H	 1.4682224898	 2.4983101826	 0.858900586	 0.122078
H	 2.1155400916	 1.1856645679	-0.1533266663	 0.120249
H	 1.1424586874	 2.3540840235	-2.1783487616	 0.09134
H	-0.263156872	 4.2859057096	-1.9765052132	 0.107362
H	 0.0646476994	 4.4596565106	-0.2360824674	 0.112144
H	 1.7591843927	 5.8188354587	-2.2618254361	 0.079643
H	 4.3558462867	 4.704429305	-0.4279235167	 0.105256
H	 3.276573811	 3.8224586646	 0.6809430541	 0.102735
H	 3.3069094608	 3.4583046793	-2.3149521696	 0.081111
