18
gdb 18445	3.21812	1.64404	1.34464	3.4977	72.95	-0.2372	-0.0191	0.2182	973.9616	0.153438	-347.78357	-347.775801	-347.774856	-347.815729	29.221	
C	 0.1919595282	 1.2005802746	-0.9104792155	-0.414976
C	 0.5676200648	-0.2525136837	-0.6485922662	 0.038558
C	 1.8751497932	-0.8829791974	-1.2480571716	-0.270646
C	 2.233774436	-1.411331028	 0.1513876554	-0.079615
C	 2.4248396818	-0.2920468652	 1.1560025196	-0.089524
C	 3.0976091125	 0.9998922138	 0.8761396902	 0.139136
O	 3.6859732542	 1.6351613344	 1.7199586866	-0.272021
C	 1.0174099174	-0.7227489058	 0.7429718908	-0.09166
H	 0.9904935935	 1.8977448891	-0.6432234261	 0.121299
H	-0.0416713188	 1.3534175441	-1.9700308422	 0.117962
H	-0.6957232579	 1.4804927859	-0.3326247685	 0.120875
H	-0.2750184607	-0.8847763079	-0.949018316	 0.086085
H	 1.6640646325	-1.6838577351	-1.9593626014	 0.110263
H	 2.5898931439	-0.1983270822	-1.7122805343	 0.107089
H	 2.6302305798	-2.3970472352	 0.3627548506	 0.098793
H	 2.6642257576	-0.6441335808	 2.1562774565	 0.108619
H	 3.0642903477	 1.3590083769	-0.1730858466	 0.073662
H	 0.3500854743	-1.0703549374	 1.5235992487	 0.096101
