19
gdb 105439	2.37085	1.40963	1.15848	1.2893	81.95	-0.2444	0.0213	0.2657	1145.4709	0.158606	-385.864453	-385.855592	-385.854647	-385.897756	34.235	
O	 0.0717090156	 1.2170528332	-0.3220144193	-0.421924
C	-0.1367766228	-0.1656340041	-0.1380161754	-0.091342
C	-1.6253717926	-0.5305660712	 0.1171024576	 0.086131
C	-2.4767163213	-0.134068949	-1.1358056587	-0.294523
C	-2.5886502659	-1.4268652909	-1.9026876383	-0.061715
C	-2.2010633777	-2.4778248299	-1.1835888596	-0.06487
C	-1.7529377031	-2.0876732748	 0.203294029	-0.305092
C	-2.0576570108	 0.1550934824	 1.3306231737	 0.262243
C	-2.3670559089	 0.7568679556	 2.3264043893	-0.459007
H	-0.2487666819	 1.658767997	 0.4741829741	 0.285887
H	 0.1890023126	-0.6552500013	-1.0611886585	 0.11511
H	 0.4685880788	-0.559084681	 0.6924999845	 0.093316
H	-3.466178466	 0.2385651634	-0.8434580346	 0.114394
H	-1.9864898411	 0.6743115261	-1.687348486	 0.128874
H	-2.9732064406	-1.4677817978	-2.9157479052	 0.095306
H	-2.2212990415	-3.5099743659	-1.5151518858	 0.094816
H	-0.8020668113	-2.5487687707	 0.4982662182	 0.107906
H	-2.4882674893	-2.3860731681	 0.9604785053	 0.118735
H	-2.6682323022	 1.2671588569	 3.2078523495	 0.195757
