19
gdb 114908	2.95173	1.31185	1.20587	2.9373	70.35	-0.2508	0.0659	0.3166	1106.9763	0.161131	-460.141855	-460.133994	-460.13305	-460.174501	30.189	
O	-0.031027828	 1.2925144299	-0.46677704	-0.424801
C	 0.0730254858	-0.0854560095	-0.151888937	-0.088332
C	-1.2985211937	-0.6334187244	 0.2035189594	 0.126312
O	-2.2095910836	-0.4650499413	-0.9188650268	-0.325911
C	-2.5517825702	-1.8665144102	-0.9174686379	 0.124057
C	-1.9748444268	-2.6363220663	-2.101586468	-0.106661
O	-0.6018467771	-2.850720664	-1.793176477	-0.244311
C	-0.5289722495	-3.0889277099	-0.3909316343	-0.102204
C	-1.5657578634	-2.1591505781	 0.2451308675	-0.144963
H	-0.6885057633	 1.3530671449	-1.1703682784	 0.293039
H	 0.4962337304	-0.6564922292	-0.9892223603	 0.109458
H	 0.7506922489	-0.1665944374	 0.7056771209	 0.103723
H	-1.6861671929	-0.0979157397	 1.0795809012	 0.084539
H	-3.6245547426	-2.0233508454	-0.7699060958	 0.083481
H	-2.5063859912	-3.5961811121	-2.2143914941	 0.089971
H	-2.0340491057	-2.0801387302	-3.0401856024	 0.122879
H	-0.7809561453	-4.1370058524	-0.1604379734	 0.095042
H	 0.5018212322	-2.9075433928	-0.0759549034	 0.119191
H	-1.970247874	-2.5375437919	 1.1831316499	 0.085491
