18
gdb 128133	2.0973	1.7582	1.01692	4.9136	76.22	-0.1988	0.0095	0.2083	1173.3457	0.148447	-431.430947	-431.421438	-431.420494	-431.465377	33.937	
C	 0.2467903409	 1.1919067636	-0.6349879125	-0.33232
N	-0.2600361062	 0.1540495739	 0.2623597614	-0.395082
C	 0.6268358949	-0.4249184662	 1.1763963409	 0.193483
C	 1.0896660546	-1.7260995528	 1.2509652262	 0.315512
N	 0.7223784447	-2.8171957888	 0.476001681	-0.594786
N	 1.9531018453	-1.8347311657	 2.2911304119	-0.270526
N	 2.0512228344	-0.665453757	 2.8826792257	-0.165224
N	 1.2616000984	 0.1924117283	 2.2328830103	 0.032454
C	 1.1604432192	 1.5613296952	 2.6869281945	-0.331021
H	 1.1274049648	 0.8102521626	-1.1593436953	 0.135595
H	-0.5195223233	 1.4223243422	-1.3813223512	 0.125252
H	 0.5308981147	 2.1330533579	-0.139116507	 0.105203
H	-1.1573479408	 0.3985125117	 0.6633403929	 0.234678
H	 0.3864177629	-2.5524639607	-0.4396904466	 0.246782
H	 1.4502827595	-3.5168544571	 0.4248876597	 0.253228
H	 1.666593675	 2.2479334309	 2.001150576	 0.143403
H	 0.1113573867	 1.857811604	 2.7759967147	 0.135112
H	 1.6375219341	 1.6128780281	 3.6656197171	 0.168256
