22
gdb 103277	2.9431	1.14092	1.03413	2.4501	82.53	-0.234	0.0847	0.3187	1291.3612	0.193529	-404.308287	-404.298816	-404.297872	-404.34216	36.387	
C	-0.3760488857	 1.4776845944	 0.8212224357	-0.402176
C	-0.2708977255	 0.0165249522	 0.4247498644	 0.087553
C	 0.7348205148	-0.2998253352	-0.7153179912	-0.288512
C	 1.5171939564	-1.1134883398	 0.3120378577	-0.08169
N	 0.5534879157	-0.7458928432	 1.4381792129	-0.198762
C	 0.7075014356	-2.1552978332	 0.9797648394	 0.303842
C	-0.4053456663	-2.9451527616	 0.3238588956	-0.475553
C	 1.4099909119	-2.917550953	 2.0969968254	-0.108192
O	 0.5539707464	-3.0760507681	 3.2136192685	-0.423771
H	 0.6173529357	 1.9102112764	 0.9779822116	 0.12008
H	-0.8858419897	 2.0534966542	 0.0412393251	 0.112456
H	-0.9396140386	 1.5832035467	 1.753528809	 0.121799
H	-1.2732684098	-0.4053258833	 0.2980897939	 0.075632
H	 0.3706160453	-0.8369165062	-1.5957600601	 0.103192
H	 1.2725389529	 0.5908316711	-1.0478677721	 0.109432
H	 2.5937569494	-1.0530379954	 0.4494766066	 0.088363
H	-0.9513069781	-2.3895056083	-0.4391758498	 0.11868
H	 0.0124579255	-3.8375012937	-0.1548883311	 0.120933
H	-1.1144902795	-3.280010876	 1.0868614503	 0.138134
H	 1.6822465791	-3.9251674907	 1.7650266269	 0.102906
H	 2.3343103714	-2.3897198859	 2.3756351918	 0.087041
H	 0.2728510231	-2.1802479215	 3.4401579593	 0.288611
