20
gdb 102969	2.18967	0.89315	0.68087	3.701	78.38	-0.2452	-0.0274	0.2178	1653.3136	0.168471	-440.3204	-440.309838	-440.308894	-440.358144	35.767	
C	 0.0830607875	 1.574398438	 0.0935931237	-0.37315
C	-0.0947589548	 0.0642425041	-0.087714452	-0.171005
N	 0.6323725972	-0.4811358035	-1.2267568967	-0.023749
C	 2.0746168771	-0.6742164156	-1.1441521464	-0.187644
C	 2.4531990983	-2.104120344	-0.7012785345	-0.273947
C	 3.9499293067	-2.3087893265	-0.7274729024	 0.154533
O	 4.6231089943	-2.5911437507	 0.2302413811	-0.235393
C	-0.0083337831	-0.8935889723	-2.3553068443	 0.145982
O	 0.5385592892	-1.396202001	-3.3169094048	-0.350723
H	 1.132107833	 1.8426114221	 0.2513184792	 0.129149
H	-0.276271416	 2.1151716089	-0.7868170148	 0.130128
H	-0.4821909713	 1.9179126218	 0.9655199097	 0.125375
H	 0.2174763093	-0.4652339233	 0.8212719992	 0.118672
H	-1.1548428379	-0.1678039818	-0.2333047761	 0.12262
H	 2.4941578975	-0.4778520561	-2.1346085481	 0.143621
H	 2.485115672	 0.0601673028	-0.4458206117	 0.119836
H	 2.0830505311	-2.3254384721	 0.3034321663	 0.118239
H	 1.9998598605	-2.7996403736	-1.4183655639	 0.148201
H	 4.4137303921	-2.1673064615	-1.7315339633	 0.081905
H	-1.1009507626	-0.7185314757	-2.30401907	 0.077349
