17
gdb 48255	1.85724	1.4939	0.87018	3.3361	73.4	-0.2601	-0.0472	0.2129	1278.8931	0.134001	-417.993192	-417.984004	-417.98306	-418.028188	32.137	
O	-0.8342409362	 1.3668555413	 0.5641447732	-0.240452
C	 0.2170357232	 0.9676078063	 0.1385961235	 0.166817
C	 1.4714492092	 1.8317315702	-0.0019892757	-0.071933
C	 1.41134118	 3.0037452639	 0.9948043658	-0.345634
C	 2.3744583427	 4.0579210543	 0.6951725281	 0.270515
N	 3.1379845293	 4.8875707747	 0.4411249036	-0.316636
N	 2.6348961896	 0.9907502402	 0.2314679337	-0.083882
C	 3.1244449958	 0.2167662174	-0.9133071666	-0.233627
C	 3.8868586633	 1.3905869702	-0.4152888497	-0.217743
H	 0.3504599528	-0.081006676	-0.2021097614	 0.103576
H	 1.4477395373	 2.2403458045	-1.0327103381	 0.104394
H	 0.3982157972	 3.4166013989	 0.9851515588	 0.175309
H	 1.597764688	 2.6191105665	 2.0027077882	 0.166614
H	 3.4512141165	-0.7932299534	-0.6873186289	 0.130026
H	 2.6075412281	 0.3268432627	-1.8652505367	 0.11873
H	 3.8805161987	 2.2924938903	-1.0219365335	 0.140568
H	 4.7806849146	 1.252179358	 0.1841538255	 0.133357
