20
gdb 94039	4.92605	0.80996	0.7313	4.2166	79.68	-0.2526	0.0304	0.283	1543.0878	0.171277	-403.179206	-403.169909	-403.168965	-403.214507	33.415	
C	 0.1869542314	 1.5904796129	 0.1102245941	-0.398639
C	 0.1664576825	 0.0722293138	 0.0456559224	 0.152813
C	 0.7772655246	-0.5488873297	-1.2153870236	-0.257733
C	 1.1839975402	-1.9421793642	-0.7156251175	-0.007243
C	 2.2659418948	-2.6229377745	-1.570182008	-0.370167
C	 2.6403036959	-3.9434952905	-1.0642518973	 0.263654
N	 2.9214111327	-4.9850617831	-0.6501191663	-0.306116
C	 1.6175023002	-1.6406155165	 0.733865862	-0.069577
O	 0.9425417725	-0.4516940754	 1.1292181463	-0.275223
H	 1.2086185454	 1.9658828386	-0.0044411382	 0.119248
H	-0.436503232	 2.0178975098	-0.681631162	 0.114206
H	-0.1984755011	 1.9351762155	 1.0735771831	 0.130639
H	-0.8742053263	-0.2792669601	 0.1503048011	 0.069577
H	 0.0810933993	-0.5763542903	-2.0577381655	 0.108159
H	 1.663252668	 0.0227143219	-1.5212625838	 0.101504
H	 0.2994395598	-2.5885547711	-0.6991878799	 0.101099
H	 1.9174363026	-2.736827007	-2.6029429821	 0.154368
H	 3.1650161393	-1.9956888866	-1.6053760777	 0.152351
H	 1.3685083547	-2.457804896	 1.4202168282	 0.11906
H	 2.7041118654	-1.4756170776	 0.7926248246	 0.098019
