23
gdb 118666	2.78196	0.74349	0.61476	3.5233	84.46	-0.2437	-0.0156	0.2281	1894.7003	0.202129	-425.431321	-425.419815	-425.418871	-425.469447	39.207	
C	 0.0348297618	 1.5259500547	-0.0337943106	-0.383358
C	 0.0198010928	-0.0004050556	 0.0813577328	-0.174983
C	-1.3920644842	-0.58711413	-0.0332683242	-0.198229
C	-1.4350790783	-2.1308283438	 0.0383319184	-0.08954
C	-2.8638651078	-2.6347635161	 0.218244549	-0.079565
O	-2.8295813972	-4.0438774812	 0.249959784	-0.233756
C	-4.1050344875	-4.6277187492	 0.375912239	-0.228802
C	-0.8529223088	-2.7071629691	-1.2404708653	 0.183947
O	 0.2703065615	-3.1170628354	-1.3708108912	-0.255308
H	 1.0507829363	 1.9202112192	 0.0638400476	 0.117004
H	-0.3577203576	 1.8552936551	-1.002387264	 0.114779
H	-0.5790491014	 1.9905912526	 0.7461515559	 0.112711
H	 0.6640648196	-0.4383520157	-0.6894120396	 0.120122
H	 0.45420528	-0.3026677571	 1.0426125741	 0.101865
H	-2.0219331923	-0.1839277859	 0.770577626	 0.100392
H	-1.8555838826	-0.2542392598	-0.9732571844	 0.098865
H	-0.8174947125	-2.4812469699	 0.8718971988	 0.102504
H	-3.2980959721	-2.2296827662	 1.1472374471	 0.092691
H	-3.4993811818	-2.2830020274	-0.6151399594	 0.086724
H	-3.9682448393	-5.7113657785	 0.388464633	 0.133145
H	-4.6027906786	-4.3204735363	 1.3090719565	 0.106178
H	-4.7616935061	-4.3605735179	-0.4670708339	 0.105754
H	-1.5592664539	-2.6802976964	-2.1059089197	 0.066861
