16
gdb 34274	3.70721	1.51629	1.22507	3.7184	80.62	-0.2331	-0.0546	0.1785	991.9972	0.125262	-363.525739	-363.518864	-363.51792	-363.556778	27.67	
N	 0.1000149241	-1.0686829273	 0.2309192489	-0.338375
C	 0.0255610734	 0.0757485611	 0.0742306841	 0.194129
C	-0.096745072	 1.4991464678	-0.0969651381	 0.183057
C	-1.3756096491	 2.2083947962	 0.4176175891	-0.31897
C	-1.0591456358	 3.620751189	-0.0478765582	-0.106009
C	-0.057315354	 3.5953694321	-0.9482997621	 0.039131
C	 1.3616706341	 3.7992498289	-0.3889619087	-0.271043
C	 1.3199030018	 2.2304741371	-0.3283252501	-0.089891
C	 0.274222813	 2.1560953048	-1.3901203316	-0.131307
H	-2.2661869873	 1.7116719717	 0.0097121327	 0.131331
H	-1.4767709015	 2.2066495917	 1.5083330781	 0.130778
H	-1.2002959481	 4.4554058621	 0.6326226126	 0.108623
H	 2.1395457941	 4.09021651	-1.1039130702	 0.119809
H	 1.4530920727	 4.3803420973	 0.5315979414	 0.114155
H	 2.1980456561	 1.5964360062	-0.238867848	 0.11981
H	 0.2919525782	 1.7272853812	-2.3827918498	 0.114773
