16
gdb 48604	2.66515	1.37838	1.07414	3.0282	74.87	-0.2639	-0.0489	0.2151	1113.7079	0.124443	-400.718593	-400.710769	-400.709825	-400.751557	28.892	
O	-0.6630479648	 0.8813280144	 0.722247621	-0.235177
C	 0.1373702847	 1.0007860544	-0.1706916102	 0.026878
C	 1.3648520118	 1.8455029738	-0.0689255879	 0.250355
C	 1.7793002205	 2.7957042984	 1.0852167929	-0.26924
C	 2.9147253979	 2.910920339	 0.0258271477	-0.051874
C	 2.8572027233	 1.3629223649	-0.1158443937	-0.281716
C	 1.7869454367	 3.00015898	-1.0596902989	-0.181133
C	 2.101393592	 2.6717185616	-2.4398892062	 0.264077
N	 2.342450687	 2.4192104598	-3.5424766837	-0.329182
H	 0.0114020092	 0.4729882097	-1.1421959438	 0.094712
H	 1.1525728727	 3.6757226712	 1.2442127544	 0.111615
H	 2.0449102587	 2.3126861779	 2.0261279515	 0.117471
H	 3.8019665757	 3.5410114524	 0.0645080513	 0.102788
H	 3.1868905713	 0.7841859191	 0.7487151477	 0.116875
H	 3.2108147302	 0.9330281269	-1.0542081256	 0.136609
H	 1.157689963	 3.8925320565	-1.0143893365	 0.126943
