18
gdb 50542	2.60445	1.14803	0.85534	4.9371	76.66	-0.2636	-0.0377	0.2259	1318.6266	0.146882	-401.962958	-401.953969	-401.953024	-401.997645	31.945	
O	 0.1032515557	 0.076022335	 0.6068310905	-0.246949
C	 0.4076652154	 0.8230603125	-0.290468556	 0.137206
C	 1.2340818028	 2.0695468624	-0.1554349854	-0.093709
C	 0.6277101333	 3.41294099	-0.6748559079	-0.246641
C	 1.3216056794	 4.1233483002	 0.5195279461	-0.220847
C	 1.5232404369	 2.7464273601	 1.2194711517	-0.014977
C	 0.49522176	 2.4565635452	 2.3296587563	-0.363146
C	 0.7143098495	 3.3208634506	 3.4882288421	 0.265852
N	 0.9035717988	 4.0147643646	 4.3929666619	-0.308957
H	 0.0723806306	 0.6216634522	-1.3352422857	 0.085233
H	 2.1772583472	 1.8760142643	-0.683598196	 0.113494
H	 0.9049984104	 3.7274122524	-1.6821538781	 0.114914
H	-0.4629793197	 3.43010468	-0.5943487532	 0.116729
H	 2.2731666811	 4.5748205383	 0.2299054758	 0.11643
H	 0.737631836	 4.8670901868	 1.0659483201	 0.123477
H	 2.5244936127	 2.5653098038	 1.6155492366	 0.098259
H	-0.527339008	 2.6169446859	 1.9688566393	 0.145813
H	 0.549687718	 1.4094036258	 2.6361006018	 0.177818
