17
gdb 47619	2.85728	1.38573	0.9643	3.6855	84.96	-0.2414	-0.0576	0.1838	1195.3174	0.135898	-384.701463	-384.69322	-384.692276	-384.734346	31.418	
O	 0.022189526	-0.0303924326	 0.1411923058	-0.306448
C	-0.0084071507	 1.1736002388	 0.023228281	 0.322671
C	-1.3181005196	 1.9478461966	-0.0570281346	-0.303261
C	-1.2111779607	 3.1897817055	-0.9472468089	-0.226111
C	-0.0734816994	 4.097911446	-0.468122287	-0.250098
C	 1.1898394273	 3.3340184208	-0.207968764	-0.126178
C	 1.2462516875	 1.9995043755	-0.0060153878	 0.002918
C	 2.4821357339	 1.3242570933	 0.2042649782	 0.254193
C	 3.5256626665	 0.7521477955	 0.3834837096	-0.391778
H	-2.0949677647	 1.2563815503	-0.392030034	 0.125819
H	-1.5770186087	 2.2485637287	 0.9690970241	 0.125303
H	-1.0094783423	 2.8791043834	-1.9796012168	 0.11549
H	-2.1591547673	 3.7364466514	-0.9592077586	 0.105881
H	 0.1261001067	 4.8931517028	-1.195979379	 0.118053
H	-0.3669366102	 4.6190086168	 0.4574829788	 0.126091
H	 2.1171384018	 3.9008121653	-0.1805311652	 0.112371
H	 4.4406698742	 0.2372182218	 0.5416398285	 0.195084
