27
gdb 122013	2.32899	0.68821	0.55759	0.9027	94.43	-0.2456	0.0883	0.3339	2153.3948	0.249066	-390.705263	-390.692973	-390.692029	-390.744334	43.238	
C	-0.0043706622	 1.5053408874	 0.1159151186	-0.382444
C	-0.0904309695	-0.005670247	-0.1113027525	-0.179858
C	 0.8407098432	-0.4831573469	-1.2187507999	-0.037393
O	 0.694607256	-1.880540298	-1.3564673996	-0.2602
C	 1.4033375909	-2.4706888659	-2.4415802454	 0.141054
C	 2.8955759354	-2.617347814	-2.1278191979	-0.404166
C	 0.7415241829	-3.8216996583	-2.7195107081	-0.168551
C	-0.7228973137	-3.7149805713	-3.156299435	-0.167488
C	-1.3801282477	-5.0786260475	-3.3828060628	-0.380706
H	 1.009167385	 1.8100941491	 0.3998374258	 0.115322
H	-0.2754942321	 2.0618410904	-0.7882106394	 0.115181
H	-0.680891369	 1.8223521373	 0.9148291399	 0.116291
H	 0.1616615193	-0.5435661263	 0.809858549	 0.105479
H	-1.1155682546	-0.2948311784	-0.3700162213	 0.104317
H	 0.5940029311	 0.0219813428	-2.169122721	 0.080001
H	 1.8804530342	-0.2109590765	-0.9728964507	 0.083298
H	 1.2864289154	-1.8280598318	-3.3324888202	 0.057859
H	 3.4225195853	-3.0733915108	-2.9721033822	 0.112165
H	 3.3643234997	-1.6494031517	-1.9289035444	 0.114261
H	 3.0363133367	-3.2527387388	-1.2474364354	 0.120627
H	 1.3238625864	-4.3429712757	-3.4902041309	 0.08723
H	 0.8129070161	-4.4299183459	-1.8077753991	 0.098515
H	-1.2738320807	-3.1541718688	-2.3945460023	 0.111698
H	-0.7822494824	-3.1222587139	-4.0793845967	 0.086099
H	-0.8593466231	-5.649241619	-4.1604421136	 0.10914
H	-1.3655616985	-5.6814565665	-2.4678149963	 0.113385
H	-2.4244114641	-4.9718732641	-3.6932247386	 0.108884
