23
gdb 109213	3.05965	1.08814	0.98896	0.1991	92.23	-0.2154	0.0295	0.2449	1369.0875	0.205922	-351.170644	-351.161355	-351.160411	-351.204526	36.057	
C	-0.2518218732	 1.5153453789	-0.0470523144	-0.372626
C	 0.0921060407	 0.0163872739	 0.0168181271	-0.292835
C	 0.791459635	-0.4852497445	-1.2130781898	 0.353815
C	 2.0384917219	-0.9649492327	-1.2936762155	-0.201939
C	 2.4278568185	-1.351433411	-2.7031249392	-0.326534
C	 1.1473671833	-1.1235871332	-3.5176996276	 0.359931
C	 1.2801218266	-0.6520666905	-4.9459769123	-0.481411
C	-0.0516566734	-1.9452077365	-3.1154693253	-0.323408
C	 0.1232762778	-0.5439724241	-2.5529404819	-0.175028
H	 0.6544046704	 2.1181908704	-0.1619520173	 0.119654
H	-0.9110166446	 1.7404016317	-0.8915787647	 0.118347
H	-0.7617091794	 1.836714239	 0.8664392886	 0.11149
H	 0.7213068331	-0.1741382189	 0.8934868773	 0.09922
H	-0.8366087241	-0.551817467	 0.1663917596	 0.102663
H	 2.7074671347	-1.0896308843	-0.4484076752	 0.080906
H	 3.2487057687	-0.7223311997	-3.0783033452	 0.098428
H	 2.7842740712	-2.3880064681	-2.771893649	 0.103228
H	 1.7742622162	-1.4068268469	-5.569952731	 0.115229
H	 0.3011581613	-0.4478527886	-5.3916893408	 0.111556
H	 1.8740276466	 0.2674385178	-5.0077130511	 0.114051
H	-0.8186291203	-2.0892155263	-3.8708171902	 0.101883
H	 0.0768059259	-2.781042582	-2.4343475499	 0.105434
H	-0.5778086267	 0.2278099826	-2.8546695023	 0.077943
