18
gdb 79322	3.60132	1.22256	1.15452	3.1015	78.09	-0.2477	-0.0297	0.218	1129.6919	0.147616	-401.894388	-401.886479	-401.885535	-401.926973	30.046	
C	 0.087029095	 1.6567397529	-0.0548682843	-0.431494
C	 0.0898924954	 0.1357734606	 0.0198055332	 0.02556
C	 0.7478834381	-0.7125934743	-1.0776372025	-0.099449
N	 2.1799051851	-0.9606316351	-0.7820096611	-0.183973
C	 2.4337866524	-0.2609235124	 0.5288699976	-0.157007
C	 1.0223239497	-0.637458904	 1.0050174966	-0.163731
C	 1.1174341529	-1.770962697	-0.0757626421	 0.295468
C	 1.0240141092	-3.2270386784	-0.141382941	 0.00497
O	 0.6273862212	-3.9348080119	 0.7544031826	-0.271415
H	 1.0824217453	 2.0704908056	-0.2354299142	 0.12486
H	-0.5616307742	 1.9975304318	-0.8689050938	 0.124039
H	-0.2963539278	 2.0891271803	 0.8757469001	 0.123457
H	-0.9316939039	-0.2344866924	 0.1557999879	 0.092881
H	 0.4432154601	-0.8508977387	-2.1077474228	 0.110618
H	 3.2221405815	-0.8055550994	 1.0521370888	 0.122808
H	 2.7046902994	 0.7957710574	 0.4431353928	 0.105669
H	 0.7615627686	-0.7518205521	 2.053854052	 0.094127
H	 1.3564828721	-3.6382134029	-1.1208945597	 0.082612
