23
gdb 76625	2.46265	1.23346	1.12598	1.2633	86.34	-0.2359	0.0685	0.3044	1267.3739	0.204411	-388.261619	-388.251652	-388.250708	-388.296226	38.482	
C	 0.2263902693	 1.4528835387	-1.8017585049	-0.431571
C	-0.0775983754	 0.2305382263	-0.9565198805	-0.0389
C	 0.9799208469	-0.506854209	-0.1547702127	-0.032738
C	 2.4192038881	-0.0418659815	-0.0612004628	-0.418045
C	-0.1562856329	 0.2004104825	 0.5612826718	-0.083648
C	 0.0098788094	 1.380274555	 1.4845510166	 0.395969
O	 0.7870680846	 2.4639499514	 1.0316687404	-0.462712
C	-1.1280053871	 1.7291591602	 2.4185246049	-0.326677
C	 0.1529239886	 1.1235002834	 2.9573268116	-0.288317
H	 1.0845641974	 2.0177664039	-1.4361088686	 0.131641
H	 0.4503393353	 1.1494620605	-2.8305698175	 0.11596
H	-0.635403565	 2.1307069097	-1.8508019032	 0.106834
H	-0.8105999207	-0.4172586371	-1.4330498701	 0.079272
H	 0.8882590725	-1.5908971688	-0.1781889279	 0.075826
H	 2.4977533184	 1.0376623124	 0.07005171	 0.145625
H	 2.9112899776	-0.5087327019	 0.7993015364	 0.112651
H	 2.9833303788	-0.3286179755	-0.9563491513	 0.106078
H	-0.9247584754	-0.4681808191	 0.9430376082	 0.075543
H	 0.2648614742	 2.9417681898	 0.3789925962	 0.283272
H	-1.2945236032	 2.7830315211	 2.6126549572	 0.110429
H	-2.0258141493	 1.12056317	 2.3998675919	 0.110124
H	 0.1362828162	 0.0955233131	 3.3020720397	 0.112386
H	 0.8243231917	 1.7792402751	 3.4991876646	 0.120998
