23
gdb 89587	3.82425	0.98466	0.94701	1.5854	84.64	-0.2536	0.0729	0.3266	1359.3518	0.207243	-388.297156	-388.288233	-388.287289	-388.331875	34.718	
O	 1.0231176413	 0.3507631409	-0.6801080706	-0.435517
C	 0.1208000038	-0.3680016958	 0.1228188862	 0.177775
C	 0.0097060071	-0.0565326776	 1.6381109901	-0.317181
C	-1.530546242	-0.3076286664	 1.530515426	 0.377619
C	-1.4048489386	-0.1208820639	-0.006684745	-0.345291
C	-1.9478545489	-1.7088309712	 2.0078355395	-0.259585
C	-2.1418364805	-1.533175657	 3.5243003224	-0.202633
C	-2.7010091767	-0.0924189691	 3.6932453914	-0.200246
C	-2.4721376548	 0.608825859	 2.3256619761	-0.27851
H	 0.8403211216	 1.2890509413	-0.562648043	 0.273776
H	 0.3626556859	-1.4211959744	-0.0454222126	 0.092115
H	 0.5916658438	-0.6681685667	 2.33334615	 0.097132
H	 0.2301333858	 0.9998627653	 1.8331037909	 0.083337
H	-1.6037038825	 0.9177720481	-0.2986267509	 0.084569
H	-1.9847556143	-0.782895605	-0.65621487	 0.095539
H	-2.8986811829	-1.9831111899	 1.5316611007	 0.091979
H	-1.2230368515	-2.4896982869	 1.7561852716	 0.092859
H	-2.7958063913	-2.2954432282	 3.9565056578	 0.093465
H	-1.1752243322	-1.6225675864	 4.0319502967	 0.099482
H	-3.7637997832	-0.1040351502	 3.9512895766	 0.098481
H	-2.1907397465	 0.4325218827	 4.5056136044	 0.098305
H	-2.0733787799	 1.6230206064	 2.4277710863	 0.086648
H	-3.4218050833	 0.6974229249	 1.7837203453	 0.095884
