20
gdb 113322	2.54194	1.05238	0.84583	4.2367	81.11	-0.2911	0.0082	0.2993	1450.6068	0.168511	-403.154125	-403.143864	-403.14292	-403.18996	36.384	
C	 0.4630888301	 1.4146443639	 0.2191559061	-0.379296
C	-0.2843618166	 0.1304891566	-0.1654916908	-0.228526
C	 0.341391506	-0.5264096897	-1.3710020911	 0.033886
O	 1.5597961045	-1.2552238095	-1.1841751389	-0.275972
C	 0.4051341721	-1.9899981748	-1.6148845636	 0.223045
C	-0.1299715909	-3.0556729162	-0.6747452625	-0.269107
C	 0.7950195734	-4.2762704187	-0.5956155208	-0.390255
C	 0.4638578938	-2.4086530835	-3.0117632979	 0.265107
N	 0.48064188	-2.7568190235	-4.1139193468	-0.338955
H	 1.5060941013	 1.1952289978	 0.465369918	 0.138394
H	 0.455859522	 2.1392247113	-0.6018042091	 0.123728
H	-0.000909324	 1.8881177873	 1.088665737	 0.121467
H	-0.290834935	-0.5599727161	 0.6817615277	 0.112765
H	-1.3302184998	 0.3609630704	-0.4043290559	 0.114006
H	 0.3542627304	 0.1004192907	-2.2655163265	 0.10913
H	-0.2527368845	-2.6162811412	 0.3174626004	 0.116757
H	-1.1257999465	-3.3536544177	-1.0233602252	 0.12119
H	 0.9081773892	-4.7527720781	-1.5740401928	 0.143212
H	 1.7880402918	-3.9836147583	-0.2427879235	 0.138016
H	 0.3899291528	-5.0188423406	 0.0969960364	 0.121406
