21
gdb 81065	2.61875	1.43327	1.173	1.6776	82.86	-0.2603	0.0876	0.3479	1148.4705	0.182982	-387.017333	-387.009022	-387.008078	-387.05059	32.434	
C	-0.049755122	 1.6532632269	-0.0658386821	-0.45039
C	 0.0460249245	 0.1385938319	 0.0531866264	 0.019967
C	 1.1301329257	-0.6699428416	-0.7310416983	-0.062218
C	 2.1882886534	-0.1970454366	 0.3074819212	-0.276445
C	 0.9230801372	-0.5845893336	 1.1388698885	 0.36239
C	 0.83271855	-1.8526387461	 0.2303241312	-0.263491
C	 0.7826897208	-0.5621164268	 2.621821067	-0.086602
C	 0.253754421	 0.5882979873	 3.3683008268	-0.184721
O	-0.5511885303	-0.5697950318	 3.14786415	-0.23556
H	 0.9000214604	 2.1686752467	 0.0993177407	 0.11585
H	-0.4023359353	 1.9276377374	-1.0667276946	 0.117216
H	-0.7762660225	 2.0537709123	 0.6488634565	 0.123406
H	-0.9549858516	-0.2984405231	-0.0312847436	 0.07256
H	 1.2506662335	-0.7194713552	-1.8140796008	 0.068799
H	 3.0620160949	-0.842828338	 0.4338639966	 0.089744
H	 2.484448832	 0.8530218404	 0.2976598086	 0.09301
H	-0.1506607507	-2.3233142781	 0.149424211	 0.096799
H	 1.6275086883	-2.5934900642	 0.3539627583	 0.086513
H	 1.4658968044	-1.2287181868	 3.1533416651	 0.086532
H	 0.5707300352	 0.7498867568	 4.3981113835	 0.112668
H	-0.057001779	 1.483321672	 2.8337725781	 0.113972
