16
gdb 81723	3.26132	1.30594	1.05537	3.7364	78.95	-0.2369	0.0036	0.2405	1142.8457	0.122614	-400.706487	-400.697884	-400.69694	-400.739671	31.8	
C	-0.1251099991	 1.3608638137	-0.309147942	-0.347609
N	-0.0267979549	 0.0262617882	 0.2447464785	-0.09106
C	-1.0361363855	-1.0293452283	 0.2240546256	-0.059699
C	-0.938964429	-1.8431041029	-1.0242022581	-0.324138
C	 0.0752362854	-2.075700732	 0.1162783695	 0.017841
C	 0.2470726258	-3.3156255301	 0.7813389027	 0.176514
C	 0.4188497134	-4.3665542325	 1.341012949	-0.399124
C	 1.0346216408	-0.8658992785	 0.0893342956	 0.360704
O	 2.2115511218	-0.6930396079	-0.0453388757	-0.347747
H	 0.8885701444	 1.7597933281	-0.3923402285	 0.161951
H	-0.5896163344	 1.3633984227	-1.3047400206	 0.122258
H	-0.7052380038	 2.0136515318	 0.3499623988	 0.133633
H	-1.8688853339	-1.0282826682	 0.9147277735	 0.1301
H	-1.6551522645	-2.6500912258	-1.1460806155	 0.141395
H	-0.6021893863	-1.3825194379	-1.9482676837	 0.132811
H	 0.5746492997	-5.2906889704	 1.8399667309	 0.192171
