15
gdb 25733	2.87878	1.55452	1.01222	7.6262	75.42	-0.1926	-0.0302	0.1624	1091.617	0.11515	-450.182708	-450.174731	-450.173787	-450.214949	30.589	
N	 0.0778901094	 1.4164832069	 0.0859361062	-0.569117
C	-0.0075166065	 0.0379796426	 0.0109067675	 0.259209
N	 1.1696882001	-0.646232616	-0.0855856248	-0.555869
H	 1.9684915667	-0.2535825732	 0.3894481013	 0.251971
H	 1.0378587385	-1.6596804048	-0.0113501243	 0.29183
C	-1.1862149327	-0.6579955739	 0.0434983373	 0.161095
C	-1.3069092589	-2.111593456	-0.0153406238	 0.345619
O	-0.3877888229	-2.9281247714	-0.0590499552	-0.424008
N	-2.6898730581	-2.4193833358	-0.0392593089	-0.310392
C	-3.3051298725	-1.278481295	 0.0187321665	 0.047374
N	-2.5077940088	-0.1605384377	-0.0016912384	-0.39877
H	 0.8930607913	 1.8021713691	-0.3720760088	 0.259555
H	-0.7612120708	 1.9079919848	-0.1855253797	 0.256487
H	-4.3824370304	-1.1667679726	 0.066035039	 0.132106
H	-2.8064403045	 0.6882987429	 0.4543442661	 0.252909
