20
gdb 86965	2.37824	1.36386	1.1244	3.8696	84.04	-0.2523	0.012	0.2644	1192.1457	0.172631	-366.054017	-366.045427	-366.044483	-366.087219	32.88	
C	-0.0130888304	 1.6023710255	 0.0026701655	-0.406278
C	 0.0258783734	 0.0675750957	 0.0542107731	-0.016853
C	 0.6202850169	-0.5165463059	-1.236736363	-0.216479
C	 0.9229966481	-2.0264380368	-1.1084458965	-0.17603
C	 1.9415943208	-2.2743659398	 0.0302408879	-0.261287
C	 1.6405446001	-1.4453802406	 1.2508124835	-0.070215
C	 0.7858127287	-0.4238681336	 1.2631563152	-0.026006
C	-0.3115705863	-2.7886204136	-0.8882150424	 0.283509
N	-1.2875087401	-3.3865907046	-0.7252733867	-0.336108
H	 0.9972123873	 2.0194470343	-0.0740464886	 0.118016
H	-0.5908607108	 1.9519142296	-0.8591352405	 0.116306
H	-0.4764975141	 2.0126262402	 0.9055765032	 0.117907
H	-1.0133199627	-0.2843917436	 0.1419076624	 0.108344
H	-0.0510525355	-0.336554932	-2.0819827454	 0.113398
H	 1.5679954919	-0.0119692799	-1.4616354555	 0.1053
H	 1.3488477468	-2.3881400211	-2.0513580071	 0.122647
H	 1.9589633655	-3.338600862	 0.2898122688	 0.126952
H	 2.9468062836	-2.0413841868	-0.3474117158	 0.116824
H	 2.16049507	-1.7260344373	 2.1632173587	 0.092592
H	 0.6048785568	 0.1097499223	 2.1939708732	 0.087458
