21
gdb 86065	2.71585	1.1624	0.84377	0.9074	95.99	-0.2146	-0.009	0.2055	1410.6593	0.181082	-349.960019	-349.950328	-349.949384	-349.994239	36.679	
C	-0.7696759694	 1.2564770072	-0.0192069593	-0.405606
C	 0.1823881577	 0.0626540739	 0.0209355814	 0.039372
C	 1.1525005555	-0.0345802418	-1.1826689892	-0.303354
C	 2.3894435715	-0.6880188084	-0.6113023361	 0.223345
C	 3.4767367136	-1.2252966667	-1.48155134	-0.513438
C	 2.3664676094	-0.6592979287	 0.7359187937	 0.113163
C	 1.1114107638	 0.0203291721	 1.2598117695	-0.330672
C	 3.3777224487	-1.13965013	 1.6019465769	 0.184373
C	 4.2122073882	-1.5400514369	 2.3755269997	-0.420199
H	-0.2142241948	 2.2015502368	-0.028016956	 0.113476
H	-1.4010016471	 1.2326516485	-0.9140185247	 0.11242
H	-1.4314241826	 1.2680181428	 0.8534452333	 0.114206
H	-0.4135934078	-0.8584925466	 0.0310292994	 0.078646
H	 0.7279629871	-0.5954163962	-2.0244771851	 0.100299
H	 1.4027173113	 0.9627641832	-1.578845575	 0.103568
H	 3.8845134903	-0.4382550156	-2.129566876	 0.12694
H	 4.2944825155	-1.6424363958	-0.8895013664	 0.137981
H	 3.0946743298	-2.0079219571	-2.1496226959	 0.125943
H	 1.3501587372	 1.0322073072	 1.6183928135	 0.106082
H	 0.6653253536	-0.5120715009	 2.1060859152	 0.108297
H	 4.9532615683	-1.894277447	 3.047958481	 0.185157
