14
gdb 49887	3.50802	1.22462	0.91809	3.2934	64.11	-0.2562	-0.0633	0.193	1163.4849	0.099574	-473.896033	-473.887918	-473.886974	-473.930003	28.352	
O	-0.1901449052	 0.0052861964	 0.0022819979	-0.254736
C	-0.0475071205	 1.1952285282	 0.0102132205	 0.165634
N	 1.1690721985	 1.8828439242	 0.0023013988	-0.151484
C	 1.1959304278	 3.3439243381	 0.0134006622	-0.290991
C	 2.6859146395	 3.7051323717	-0.0000522021	 0.393838
O	 3.1086457862	 4.8279456208	 0.0047257935	-0.284494
C	 3.4817211616	 2.4141083572	-0.0195220413	-0.469594
C	 2.4545426119	 1.2865927245	-0.0165437337	 0.431019
O	 2.6812238805	 0.1102552182	-0.0280229372	-0.307823
H	-0.8948720211	 1.9110041434	 0.0248856227	 0.089306
H	 0.7037506293	 3.7780464455	-0.8644950608	 0.160085
H	 0.7231049152	 3.7642251929	 0.908484897	 0.160097
H	 4.1206582747	 2.3518588317	-0.9061002435	 0.179575
H	 4.1414551715	 2.3378788973	 0.8505488559	 0.179568
