21
gdb 51425	3.83669	0.96487	0.93477	2.712	82.66	-0.2467	-0.0193	0.2274	1341.8044	0.183967	-387.090503	-387.082323	-387.081379	-387.124339	31.452	
O	-0.5586334955	 0.797640926	 0.7288993333	-0.240315
C	 0.0904953072	 1.0178116744	-0.2608108556	 0.166013
C	 1.4184033931	 1.7430734779	-0.2879185839	-0.327386
C	 1.3845896519	 2.922225691	-1.2649897697	 0.035686
C	 0.6349231538	 4.2202476324	-0.8128094978	-0.019114
C	 1.9404883863	 4.6127667517	-0.0612428463	-0.231227
C	 2.611631669	 3.8913460196	-1.2664861928	-0.027904
C	 2.2491105787	 4.8342499894	-2.4313053231	-0.217205
C	 0.7388526873	 5.0838982626	-2.085551152	-0.214322
H	-0.2707789075	 0.6890470516	-1.2647873739	 0.068824
H	 1.6711210362	 2.0311826973	 0.7345759816	 0.122412
H	 2.1758239354	 1.0232723625	-0.6334486739	 0.116669
H	 1.0961059518	 2.5479437214	-2.2562246073	 0.061075
H	-0.3313754906	 4.1786494222	-0.3085114702	 0.069147
H	 2.1477035837	 5.6790727573	 0.0697358807	 0.08936
H	 2.0728151756	 4.0974197201	 0.889913358	 0.103501
H	 3.6352396176	 3.515992742	-1.2211312365	 0.057307
H	 2.8414726213	 5.7533967413	-2.4174717957	 0.097792
H	 2.3852977394	 4.3620454325	-3.4085730468	 0.095507
H	 0.064619388	 4.7429827672	-2.8765529942	 0.096194
H	 0.5200918171	 6.1372571595	-1.8897731239	 0.097985
