14
gdb 35649	4.44747	0.98369	0.85041	5.6253	76.72	-0.25	-0.0452	0.2047	1281.8358	0.10163	-395.71374	-395.705701	-395.704757	-395.746752	29.286	
C	 0.1155044568	-1.1813034571	-0.0122312772	-0.35746
C	 0.0013826962	 0.0146852311	 0.0040179749	 0.261656
C	-0.0805237604	 1.4383935195	 0.0153953455	 0.230751
N	-1.1691707817	 2.0936954121	-0.1831305454	-0.303375
C	-0.8013362295	 3.518095636	-0.0465154037	-0.12178
C	 0.7605321154	 3.5640820147	-0.0649711046	-0.200582
N	 1.063409363	 2.1778334494	 0.2990906751	-0.355984
C	-1.4062263218	 4.3469354752	-1.0919919205	 0.286881
N	-1.8530051418	 5.0265481841	-1.9120617489	-0.319494
H	 0.1926684569	-2.241208688	-0.026381713	 0.213234
H	-1.1784401716	 3.8778003317	 0.9207760945	 0.141722
H	 1.1380225375	 3.8195601368	-1.0626575956	 0.133644
H	 1.1648427975	 4.2735781164	 0.6594789315	 0.134358
H	 1.9531553035	 1.7869522981	 0.0245650273	 0.256429
