18
gdb 126980	2.64552	1.31819	1.0101	4.765	74.35	-0.2351	0.0066	0.2417	1217.5411	0.147081	-435.262416	-435.253086	-435.252141	-435.298124	32.596	
C	-0.2116954733	 0.9465091281	-0.9966452542	-0.384838
C	 0.1729183391	 0.0589042087	 0.1762389792	-0.073835
O	 1.2826062922	-0.8147653123	-0.1298876554	-0.278211
C	 1.0123684151	-1.866753987	-0.9259209426	 0.305448
C	 1.3198357414	-2.1403280726	-2.2403430362	 0.2234
C	 2.0275344729	-1.289542827	-3.2410558261	-0.49328
N	 0.8701407189	-3.4012852698	-2.5165380023	-0.250934
N	 0.306725958	-3.9171215199	-1.4611820732	-0.129404
N	 0.3872447543	-2.9929663419	-0.4833906334	-0.231451
H	 0.6351972882	 1.5644998659	-1.3073620994	 0.134325
H	-0.5405807081	 0.348752751	-1.8513776687	 0.13974
H	-1.0348269679	 1.6074380294	-0.7067272228	 0.125211
H	 0.5221251537	 0.6529922986	 1.0242159251	 0.123113
H	-0.6824287006	-0.542340567	 0.5108203895	 0.103849
H	 2.4009545632	-0.3775079209	-2.7688225338	 0.127586
H	 2.8765682668	-1.8255121167	-3.6759189003	 0.143187
H	 1.3657437938	-1.0040360807	-4.065622073	 0.136294
H	 0.0493819023	-3.2049797658	 0.4417755475	 0.279797
