17
gdb 125168	3.26427	1.63623	1.10479	2.6886	82.28	-0.2126	-0.0125	0.2001	1071.0448	0.138389	-380.90604	-380.898567	-380.897623	-380.938551	28.356	
C	-0.0288145512	 1.5463556983	 0.061747626	-0.50842
C	-0.0357910329	 0.051040924	-0.0213075558	 0.002895
C	 0.0122355245	-0.7626658823	-1.1375363577	 0.357473
C	 0.084406233	-0.8209764659	-2.6373593496	-0.421815
C	 0.0854133549	-2.3250499638	-2.8872372186	-0.126716
C	 0.0241306695	-2.9808703588	-1.7211475278	-0.009779
N	-0.0195183094	-2.045994337	-0.6770566449	 0.045086
N	-0.0848998643	-2.1555118627	 0.6571176606	-0.309066
C	-0.0946773289	-0.8786426213	 1.0536637317	-0.053664
H	 0.8781582222	 1.9786818499	-0.3769515473	 0.126176
H	-0.8828975252	 1.9916216283	-0.4619363457	 0.12618
H	-0.0766822854	 1.8749660063	 1.1036291887	 0.128322
H	-0.7681404356	-0.3278301409	-3.1223311021	 0.139015
H	 0.9869666966	-0.34076648	-3.0373722947	 0.139015
H	 0.129487744	-2.7766324012	-3.8665096896	 0.114557
H	 0.0054401011	-4.0358068528	-1.4957159511	 0.143345
H	-0.144084953	-0.6498787204	 2.1094511179	 0.107396
