17
gdb 22986	2.50411	1.16865	0.96802	2.9681	73.15	-0.2312	-0.021	0.2103	1257.8364	0.133619	-455.08792	-455.078511	-455.077567	-455.123223	33.344	
C	 0.9093453643	 0.3420064736	 0.7454711493	-0.481289
C	-0.2267752449	 0.1678864935	-0.2358464885	 0.398678
O	-0.3746274233	 0.8621640482	-1.2130981786	-0.297952
C	-1.2450745188	-0.9406551728	 0.0683372314	-0.163504
N	-0.7324290071	-2.1448486183	 0.7878343946	-0.330898
C	-1.8069183857	-2.0656161065	 1.8213461203	-0.258265
C	-2.17262928	-0.7132685246	 1.253188498	 0.393188
N	-2.8786235578	 0.28324522	 1.574700251	-0.218821
O	-3.5535062641	 0.0530979168	 2.7828172097	-0.387371
H	 1.5563946	 1.1560272524	 0.4180404677	 0.137037
H	 0.5100153884	 0.5618570248	 1.7421316196	 0.144473
H	 1.4709892029	-0.5918054349	 0.8366348349	 0.153615
H	-1.7917220258	-1.1425920387	-0.8614408775	 0.106422
H	-0.7528252673	-2.9899739217	 0.229218102	 0.230669
H	-2.6138845712	-2.8040667931	 1.7232888664	 0.125245
H	-1.4434786943	-2.0821849611	 2.8541856948	 0.135695
H	-4.0407352352	 0.8754447127	 2.905065475	 0.313077
