20
gdb 91933	2.13508	1.73986	1.5084	2.4209	73.56	-0.2298	0.0628	0.2927	1014.8834	0.170647	-440.262034	-440.253265	-440.252321	-440.29456	34.807	
C	-0.6677373303	 1.4462239779	 0.1438018299	-0.458522
C	 0.0006107427	 0.0741482841	 0.0781160525	 0.383378
O	-0.9838805403	-0.9652650744	 0.1479590942	-0.478168
C	 0.8794786799	-0.141432095	-1.1480345667	-0.084057
C	 2.2471997228	 0.439703395	-1.1609747206	-0.263385
N	 2.0447987085	-0.9773513213	-0.8154971122	-0.103576
C	 1.9799298446	-1.2169036032	 0.6396158477	-0.166251
C	 0.9583190218	-0.2464604334	 1.2653596856	 0.030151
O	 1.65118664	 0.8864515299	 1.7762572139	-0.422572
H	 0.0714165672	 2.2507608471	 0.1611724668	 0.127069
H	-1.3086014254	 1.5984872719	-0.7317223088	 0.11171
H	-1.3042239582	 1.5190038892	 1.032245844	 0.116543
H	-1.4366374397	-1.0076180472	-0.7010340533	 0.277659
H	 0.3709219498	-0.3555070506	-2.087662374	 0.075073
H	 2.741941736	 0.6002336683	-2.1147598101	 0.110458
H	 2.5217412769	 1.1309618791	-0.370996954	 0.138612
H	 1.6453838171	-2.247419083	 0.7867402878	 0.117326
H	 2.9646981532	-1.0986523221	 1.0990915093	 0.115162
H	 0.3750810941	-0.7314437266	 2.0571213333	 0.086515
H	 1.0151065492	 1.4495009842	 2.2285429048	 0.286875
