11
gdb 123276	10.27535	0.68309	0.64051	4.0987	90.24	-0.2586	-0.0868	0.1718	1580.5616	0.064912	-414.328848	-414.321481	-414.320537	-414.361341	26.464	
C	 0.1088651711	-3.7558551498	-0.0199076979	-0.572594
C	 0.0651588987	-2.5487026389	-0.0125751245	 0.274685
C	 0.0173139073	-1.1938401212	-0.0043604389	-0.083153
C	-0.0336605265	 0.0178860956	 0.0030950059	 0.404806
C	-0.0920545466	 1.414888918	 0.0116728764	 0.190064
C	-1.1371443184	 2.298913011	 0.0307626151	-0.241378
N	-0.5962280598	 3.5558986105	 0.0304454764	-0.10744
N	 0.6624094831	 3.4990378305	 0.013070802	-0.016992
O	 1.0464008388	 2.1313693025	 0.0002554161	-0.209237
H	 0.1476320135	-4.8176422952	-0.0263655016	 0.207954
H	-2.1980677112	 2.121284607	 0.044147161	 0.153284
