20
gdb 31714	5.23003	0.82942	0.76295	0.9853	82.38	-0.2263	0.0147	0.241	1580.6021	0.17085	-403.203341	-403.193905	-403.192961	-403.238755	33.836	
C	 0.2604647297	 0.6701030446	 1.0030586831	-0.387315
C	-0.4053706107	 0.3328609518	-0.3334072411	-0.285151
C	 0.5557452403	-0.0602122186	-1.409085078	 0.250764
C	 1.9058780402	-0.1679257692	-1.3835111506	-0.126268
O	 2.3310470653	-0.5653353181	-2.6252536277	-0.181687
C	 1.1915081318	-0.6804611759	-3.3556400635	 0.379059
C	 1.3226223998	-1.0940578752	-4.7812662295	-0.287341
C	 2.0974429311	-0.0773902301	-5.6369359211	-0.378686
N	 0.1163272366	-0.3944987199	-2.6917722289	-0.35428
H	 0.8207501167	-0.1855487253	 1.3943215194	 0.120107
H	 0.9574143813	 1.5082919138	 0.8990327019	 0.120084
H	-0.4879380947	 0.9487223911	 1.749838232	 0.116768
H	-1.1296337797	-0.4805389319	-0.1979189506	 0.119733
H	-0.9942564083	 1.1887741137	-0.6871816634	 0.119477
H	 2.6702834425	-0.019179015	-0.6414565093	 0.139017
H	 1.8257651797	-2.067752244	-4.8270434732	 0.121661
H	 0.3096586889	-1.2317181875	-5.1665966178	 0.134219
H	 1.5913570388	 0.8924607339	-5.6444961118	 0.129179
H	 3.1084450634	 0.0703985631	-5.2476459215	 0.13241
H	 2.1768345475	-0.4292805014	-6.6694217482	 0.11825
