20
gdb 90094	2.81047	1.47502	1.31658	1.7987	81.4	-0.205	0.0688	0.2738	1073.5462	0.170189	-403.006299	-402.998085	-402.997141	-403.038436	33.116	
C	-0.1408064205	 1.6509195322	-0.1598979858	-0.413241
C	 0.0043281058	 0.1348761232	-0.0383324822	 0.053037
C	 0.9854420228	-0.6237406275	-1.0295075434	-0.360877
C	 1.8554207733	-0.847346275	 0.2202090378	 0.262197
C	 2.4700713778	-1.7296072281	 1.3520781692	-0.287269
C	 1.9411780549	-0.3725582563	 1.9911687622	-0.089849
C	 2.6249942539	 0.3739020394	 0.8315148097	 0.132749
O	 4.0275380503	 0.3584989148	 0.697328216	-0.447264
N	 0.6956474679	-0.6119346986	 1.1219051332	-0.167474
H	 0.787156915	 2.1721180965	-0.4047314402	 0.122886
H	-0.8604893128	 1.8798558953	-0.9549095909	 0.117135
H	-0.5372146892	 2.0722696907	 0.770048391	 0.125163
H	-1.0061654446	-0.2825997804	-0.0615908693	 0.090809
H	 0.5366552262	-1.5299147591	-1.4408089783	 0.115466
H	 1.4367555612	-0.0358811237	-1.832174838	 0.106435
H	 1.8819361387	-2.6106915596	 1.6070099889	 0.105103
H	 3.5476754256	-1.8844791362	 1.3781124262	 0.114058
H	 1.8926395661	-0.1221350249	 3.0545140712	 0.076407
H	 2.2186646969	 1.3614612903	 0.6129878654	 0.061848
H	 4.3878824707	 1.0902513169	 1.2080746774	 0.282682
