21
gdb 121814	3.31894	0.74133	0.70139	3.7139	80.61	-0.2569	0.0323	0.2892	1697.3537	0.18053	-420.406001	-420.394988	-420.394044	-420.442692	38.822	
C	-0.0160267765	 1.3663379976	 0.1504649144	-0.229196
O	 0.0539318551	-0.0365693457	 0.0640891339	-0.232391
C	 0.6014644354	-0.4824614129	-1.1583906359	-0.073827
C	 0.6100443326	-2.008309435	-1.1131834209	-0.198976
C	 1.3193155964	-2.6834300363	-2.3115680308	 0.064183
C	 0.6693666757	-2.3250922279	-3.6610349945	-0.398616
N	 2.7260120293	-2.2568794516	-2.3427559372	-0.509622
C	 1.2124941048	-4.1545971403	-2.1218511203	 0.254835
N	 1.1753472655	-5.3010874052	-1.9737940303	-0.34149
H	 0.9792466914	 1.8315543453	 0.069547898	 0.104808
H	-0.6574437391	 1.7938303147	-0.6368848756	 0.103403
H	-0.4432908197	 1.6131594643	 1.1253389243	 0.12873
H	-0.0060460974	-0.1139106626	-2.0012777093	 0.085928
H	 1.6223039804	-0.0970187016	-1.2972883423	 0.109318
H	 1.1085527404	-2.3176344212	-0.187658253	 0.120315
H	-0.4181954321	-2.3775791341	-1.0509472214	 0.124723
H	 0.805234238	-1.2609825255	-3.8635619441	 0.139123
H	 1.1352392439	-2.8918963257	-4.4724503114	 0.130269
H	-0.3977684587	-2.5597948508	-3.6540665157	 0.136802
H	 3.1975971194	-2.552989627	-1.4922578596	 0.241756
H	 3.209388345	-2.7102417185	-3.1132037184	 0.239925
