21
gdb 41822	2.29505	1.94268	1.45805	0.9347	76.96	-0.2396	0.073	0.3126	995.0731	0.186598	-424.237547	-424.23019	-424.229246	-424.269223	29.909	
C	 0.2292648125	 1.6882016984	 0.1381448428	-0.078337
O	 1.4855815397	 2.0140267141	-0.451609901	-0.277539
C	 2.0418416073	 0.8605940881	-1.1014117331	 0.118849
C	 0.8977088635	-0.1702350535	-1.1622743502	-0.241133
C	 0.1016022024	 0.1560632547	 0.1132407146	-0.048143
C	 0.6669462832	-0.5692348755	 1.3621324217	-0.091583
O	 2.0150382145	-0.986722881	 1.2778304177	-0.243313
C	 2.974536197	 0.0526207835	 1.1423057852	-0.075337
C	 3.2726765578	 0.3868440857	-0.3203787851	-0.207922
H	 0.194447698	 2.1024915306	 1.153439406	 0.097163
H	-0.5812425324	 2.152973801	-0.4433245524	 0.090538
H	 2.3533853025	 1.1637468106	-2.1080752531	 0.072275
H	 0.2799373863	 0.0083058167	-2.0475786506	 0.098583
H	 1.2602191272	-1.1988283173	-1.1923010427	 0.114841
H	-0.9521817129	-0.1239121061	 0.019019018	 0.074649
H	 0.5195224838	 0.0654700763	 2.2521987313	 0.087452
H	 0.1051449208	-1.4947863378	 1.5224131856	 0.106441
H	 2.6418234631	 0.9561843515	 1.6728548384	 0.102121
H	 3.887248675	-0.3029088577	 1.6326240861	 0.101711
H	 3.6997242859	-0.4926224023	-0.8177343319	 0.098107
H	 4.0331542545	 1.1770674401	-0.3457380075	 0.100578
