13
gdb 51724	3.92156	0.99704	0.87342	4.9507	56.14	-0.304	-0.0234	0.2806	1245.3011	0.088792	-530.905135	-530.897429	-530.896485	-530.938898	26.195	
O	 0.0063381867	 0.0472342236	-0.2562627922	-0.246658
C	 0.0180141896	 1.2180194973	-0.0525834174	 0.182637
O	 1.1327209155	 1.9766006812	-0.2595681123	-0.192292
C	 1.011638395	 3.3667925953	-0.0475419355	 0.171097
C	 2.4142037875	 3.9813361694	 0.0344908202	-0.126138
O	 2.5957578192	 4.5720574808	-1.2505539545	-0.233147
C	 1.4202892859	 4.6063513294	-1.9210827171	 0.504106
O	 1.2424991047	 5.1007555487	-2.9819866746	-0.35074
O	 0.4420055588	 3.9913204226	-1.1757545337	-0.233658
H	-0.8365525279	 1.8071220869	 0.3277566254	 0.100564
H	 0.3726957553	 3.5682203296	 0.816418543	 0.122135
H	 2.4802083308	 4.7557425926	 0.8037399673	 0.140825
H	 3.1762300488	 3.2188075927	 0.1969954814	 0.16127
