23
gdb 76199	2.10388	1.44236	1.19885	1.5664	86.46	-0.2161	0.0785	0.2946	1225.0485	0.203537	-388.268247	-388.258003	-388.257059	-388.302955	38.066	
C	 0.0129371944	 0.8558654927	-2.1415589864	-0.420114
C	 0.0550637723	-0.2612573233	-1.1208086399	-0.1353
C	 1.3043112541	-0.6446344255	-0.3117221869	 0.224379
C	 1.5176198803	-2.1251111013	-0.0527234977	-0.447644
C	 2.5861918059	 0.152022395	-0.4671623647	-0.456813
C	 0.1199235791	 0.0005122276	 0.3526694621	 0.416149
C	 0.0171609721	 1.3083890115	 1.1339217079	-0.363198
C	-0.8371275414	 0.470944542	 2.1090232361	-0.073269
O	-0.7114698523	-0.7075098012	 1.2821260521	-0.308766
H	 0.5636492797	 1.7410094998	-1.8105936776	 0.114784
H	 0.4435087915	 0.5402309689	-3.098483941	 0.118484
H	-1.0203118502	 1.1678434476	-2.3312954286	 0.11825
H	-0.5675805117	-1.1171491838	-1.3752916638	 0.088218
H	 1.9930783847	-2.6092860572	-0.9138747815	 0.108111
H	 2.1677775139	-2.2791753025	 0.8166557826	 0.109952
H	 0.5725734698	-2.6331375608	 0.1523597892	 0.131804
H	 2.4058676275	 1.2229298064	-0.5913555799	 0.113286
H	 3.2269085016	 0.0265594239	 0.4138640379	 0.113795
H	 3.1576293482	-0.1892919095	-1.3387024227	 0.115675
H	 0.9538061863	 1.6963509768	 1.5394013142	 0.1118
H	-0.5158294757	 2.1152509335	 0.6261306404	 0.112264
H	-0.4034571457	 0.317261106	 3.1041960156	 0.103628
H	-1.8827820442	 0.7805021333	 2.2169447127	 0.104526
