19
gdb 91265	2.87825	1.43864	1.16301	4.2532	74.78	-0.2641	0.0154	0.2795	1109.5503	0.160612	-423.073418	-423.065559	-423.064615	-423.106069	30.418	
C	 0.1044760055	 1.6094113899	-0.0283725576	-0.408598
C	 0.0777307775	 0.0911518975	 0.0403528428	 0.023722
C	 0.9455615426	-0.7344483176	-0.9576172115	-0.265659
C	 1.3908076945	-1.664901274	 0.2118345185	-0.029677
C	 2.8731771464	-1.7190340355	 0.5406908622	-0.378878
C	 3.1183405714	-0.4539520339	 1.365660325	 0.42047
O	 4.1627481768	 0.0238796659	 1.6961984773	-0.330068
O	 1.9218775581	 0.1045219059	 1.718296148	-0.225586
C	 0.7998606305	-0.6264116245	 1.2110682034	 0.083394
H	 1.1266117542	 1.9882830921	 0.0562027123	 0.133979
H	-0.3126203051	 1.9585968663	-0.9788787223	 0.115927
H	-0.4838646032	 2.0554953642	 0.780391789	 0.120671
H	-0.956554108	-0.2699888164	 0.0139129091	 0.07914
H	 0.4187264189	-1.2119569414	-1.7860953579	 0.106611
H	 1.7792253805	-0.156551556	-1.3696095321	 0.107995
H	 0.895176425	-2.6355029377	 0.2128985286	 0.083353
H	 3.1415821905	-2.5823579632	 1.1595246837	 0.138229
H	 3.5344193426	-1.7224019898	-0.3288791028	 0.140167
H	 0.1987258811	-0.9551135318	 2.0623434844	 0.084809
