19
gdb 81069	2.75266	1.40808	1.14353	0.7179	75.55	-0.2386	0.0641	0.3026	1132.495	0.158046	-422.931325	-422.922992	-422.922047	-422.964994	31.57	
C	-0.5079224555	 1.3950159181	-0.4995379994	-0.438866
C	-0.0477579468	-0.011774182	-0.1588304294	-0.00031
C	 1.3575353455	-0.572460066	-0.5133477716	 0.026033
C	 2.0133715539	 0.2939777088	 0.587295807	-0.281688
C	 0.7292542623	-0.3662244293	 1.151330457	 0.445847
O	 1.1437459552	-1.63638131	 0.4989824706	-0.349019
C	 0.2191467271	-0.4313158537	 2.547389918	-0.104103
C	 1.0798170245	-0.1523932435	 3.7032684919	-0.171627
O	 0.15478757	 0.8267491616	 3.2273760285	-0.231073
H	 0.2516718875	 2.156200304	-0.3072750444	 0.123333
H	-0.7856466653	 1.4586059035	-1.5572766169	 0.121323
H	-1.3933442981	 1.6571274739	 0.0886861898	 0.131491
H	-0.8244016693	-0.7553615994	-0.3599610297	 0.081763
H	 1.7594964446	-0.8787905789	-1.4791432378	 0.093545
H	 2.944801902	-0.1116085513	 0.9841936177	 0.106207
H	 2.0412773709	 1.3774305847	 0.4685182834	 0.106015
H	-0.6518331352	-1.0724381241	 2.6884015996	 0.101286
H	 0.8363059846	-0.5962695684	 4.667080763	 0.120621
H	 2.1307926621	 0.0806717219	 3.5447128026	 0.119224
