20
gdb 14165	3.18782	2.17969	1.79508	1.6613	73.6	-0.2424	0.0858	0.3282	849.5337	0.178008	-348.992131	-348.984696	-348.983751	-349.02309	30.167	
C	-0.1604189135	 1.6006895001	-0.0054525042	-0.478527
C	-0.0089405469	 0.082605862	 0.0079096116	 0.344691
C	-1.3503667481	-0.586450397	-0.3017560655	-0.451847
C	 1.1810091375	-0.6074538137	-0.7338876445	 0.045674
C	 2.4483446954	 0.1209985306	-0.2426466612	-0.226909
C	 2.1062400939	 0.1003465658	 1.2838966427	-0.22691
C	 0.754699045	-0.63321341	 1.1684575597	 0.045678
O	 1.0929695469	-1.7032212888	 0.2306588782	-0.305224
H	 0.7658195485	 2.1361569616	 0.2091955385	 0.116965
H	-0.5195177671	 1.9384353177	-0.9844130387	 0.117129
H	-0.9045807946	 1.9151412732	 0.7353129937	 0.117131
H	-1.7202741579	-0.2730805894	-1.2848598023	 0.107501
H	-1.2595629143	-1.6734254101	-0.2961033343	 0.136581
H	-2.1062019376	-0.2963654901	 0.4372229572	 0.1075
H	 1.1221280652	-0.925988267	-1.7760807296	 0.070593
H	 3.3426973267	-0.4589106919	-0.478599928	 0.10697
H	 2.5682577105	 1.1247013318	-0.6579826472	 0.097721
H	 2.8177515419	-0.4905750134	 1.8638945632	 0.106969
H	 2.0316364993	 1.0923126455	 1.7363798021	 0.097722
H	 0.2585957794	-0.9781654768	 2.0772962086	 0.070593
