17
gdb 69702	3.97477	1.33151	1.22657	4.4218	71.4	-0.2524	0.0062	0.2586	1046.9494	0.136049	-421.813766	-421.806306	-421.805362	-421.845545	29.185	
C	-0.0497430009	 1.5178382888	-0.0067642669	-0.506519
C	 0.0385333906	 0.018963349	 0.0159944774	 0.348213
C	-0.8488294046	-0.8650764601	 0.8456363256	-0.355438
C	 0.636689456	-0.9488685362	 1.0568030431	-0.109142
C	 1.3422698435	-1.7536550712	-0.0694119205	-0.225377
C	 0.7194295585	-0.8102621189	-1.1006757703	 0.043593
O	-0.0522982502	-1.9201382522	-1.6742675688	-0.264316
C	 0.5104350828	-2.8261813569	-0.7872700523	 0.438002
O	 0.31708526	-3.9967999875	-0.7408992197	-0.321443
H	 0.9055073003	 1.9757861201	-0.2876414966	 0.120889
H	-0.8061020561	 1.8566886729	-0.7248202257	 0.131712
H	-0.3290129618	 1.9080499362	 0.9768690982	 0.125668
H	-1.382065729	-0.3403143338	 1.6323625063	 0.118794
H	-1.4100658569	-1.6823806916	 0.4034234876	 0.143846
H	 1.0994761224	-0.7317715987	 2.0108766774	 0.101751
H	 2.4122083131	-1.9191338493	 0.0316889626	 0.110138
H	 1.2802958723	-0.2748511707	-1.8648313472	 0.099628
