18
gdb 32859	4.80083	0.8329	0.71614	2.3878	75.95	-0.1686	0.0687	0.2373	1554.6854	0.14661	-439.108257	-439.098645	-439.097701	-439.143152	34.603	
C	 0.1001816143	 1.4826039643	-0.0277827643	-0.391787
C	 0.8028011772	 0.2561570903	-0.5789691194	-0.043957
O	-0.1339870612	-0.8173020608	-0.5975994693	-0.269366
C	 0.3390272114	-1.9918659654	-1.0659099434	 0.444866
C	 1.5689343268	-2.3950906157	-1.5454554915	-0.444771
C	 1.4195264886	-3.7779385988	-1.8857638691	 0.324962
O	 2.3781761452	-4.6044254937	-2.4021166241	-0.451527
C	 0.1357884897	-4.165969013	-1.6104475128	-0.182582
N	-0.5187464303	-3.0447228953	-1.1029453619	-0.338514
H	-0.7535064847	 1.7532832736	-0.65524451	 0.13096
H	-0.2624394416	 1.2966293072	 0.9869465161	 0.13096
H	 0.7919139816	 2.3295386281	 0.000878821	 0.121036
H	 1.1728224404	 0.4341060588	-1.5984959501	 0.107193
H	 1.6638756921	-0.022938307	 0.0444693457	 0.107191
H	 2.4578841137	-1.79325624	-1.6433893423	 0.086242
H	 3.1888090927	-4.0985943836	-2.5032831523	 0.293357
H	-0.3617301438	-5.1122619608	-1.7253175985	 0.115081
H	-1.476136982	-2.9993288082	-0.8043134338	 0.260658
