17
gdb 31065	2.52479	1.3021	0.88029	1.0378	73.88	-0.1602	0.0494	0.2096	1290.5867	0.135755	-455.150727	-455.141344	-455.1404	-455.185026	34.225	
C	 0.0616664508	 1.393838989	-0.234496299	-0.321074
N	-0.0343794176	 0.0868986504	 0.4051920861	-0.400747
C	-1.2234141545	-0.6296521294	 0.2205135489	 0.203735
C	-1.339978443	-1.9669575281	 0.0217600761	 0.226441
O	-0.4178729243	-2.931695729	-0.1973205006	-0.430729
O	-2.6747954872	-2.3331985711	-0.042653054	-0.196653
C	-3.3899064079	-1.1941078476	 0.1069553198	 0.384233
N	-4.7694691558	-1.3653157611	 0.1591527221	-0.593902
C	-2.5744969609	-0.1147311497	 0.2649212697	-0.355497
H	 1.049069612	 1.8162926319	-0.0294821513	 0.119262
H	-0.0914894139	 1.3728162666	-1.3256367957	 0.106617
H	-0.6803881414	 2.0730143871	 0.1961164452	 0.128839
H	 0.7606547935	-0.4967861094	 0.1768892309	 0.231591
H	-0.3438895321	-3.498126496	 0.5820663265	 0.301876
H	-5.0993337521	-2.0471558366	-0.5141129694	 0.252656
H	-5.2639535383	-0.4915265496	 0.0402196346	 0.251531
H	-2.8833265874	 0.9081248125	 0.4060565701	 0.091821
