18
gdb 34653	3.31091	1.16058	0.89356	5.2259	88.16	-0.2369	-0.0583	0.1786	1280.8915	0.149952	-364.849569	-364.841473	-364.840529	-364.882891	30.594	
N	 0.0606579909	-1.222096201	 0.1623537893	-0.340177
C	 0.0085773445	-0.066964585	 0.097965799	 0.214214
C	-0.0296609998	 1.3690959409	 0.0180311357	 0.136244
C	-1.2512474796	 1.9446909163	 0.0154125677	-0.131135
C	-1.5639518698	 3.408664497	-0.0565173047	-0.258073
C	-0.5981514039	 4.3309164887	 0.7051614224	-0.214963
C	 0.7735198587	 4.5207577862	 0.0526006232	-0.257186
C	 1.631057157	 3.2989445906	-0.1016427753	-0.06371
C	 1.2940613435	 2.0024546738	-0.0930507957	-0.108918
H	-2.1055563868	 1.2761734535	 0.0720419381	 0.118099
H	-1.6103313555	 3.7143809077	-1.1128549284	 0.127609
H	-2.5782212943	 3.5557963068	 0.3306854307	 0.115978
H	-1.068009375	 5.3158298932	 0.8010792606	 0.104182
H	-0.4679982763	 3.9471631573	 1.7232588778	 0.115969
H	 0.6547407957	 4.9933962224	-0.9342793875	 0.119381
H	 1.3390385229	 5.2535961241	 0.6436401891	 0.114338
H	 2.6897440926	 3.5116682564	-0.2373981133	 0.101076
H	 2.1036569851	 1.2867201211	-0.2033697885	 0.107074
