19
gdb 82502	2.67607	1.75459	1.43538	2.3042	74.22	-0.2456	0.0709	0.3165	969.461	0.160909	-422.99177	-422.984456	-422.983512	-423.022932	30.753	
O	 0.0739748521	 1.4859114424	-0.0761044179	-0.444291
C	 0.0385682992	 0.0789604417	 0.0177565605	 0.139419
C	 0.137079176	-0.6278369743	 1.4087586154	-0.110507
C	-0.9184747007	 0.1434808068	 2.2202497211	-0.272014
C	-2.1070369952	-0.3076027174	 1.3406008769	 0.416962
O	-3.3167381186	 0.3704439188	 1.415943225	-0.491286
C	-2.108400645	-1.8312341361	 1.5784109788	-0.270518
C	-0.7847174062	-1.7729013368	 0.7971550226	-0.04059
C	-1.3339412041	-0.5707233998	-0.0404019199	-0.131348
H	 0.9920303081	 1.7723295926	-0.0358369512	 0.282231
H	 0.7185746934	-0.3859776388	-0.7101538228	 0.064863
H	 1.0990393817	-0.8451414572	 1.8734412353	 0.057219
H	-1.0232775129	-0.1867523436	 3.2570091844	 0.091173
H	-0.7443876836	 1.2221521041	 2.1941445544	 0.095506
H	-3.1403847004	 1.3099615182	 1.2948875105	 0.281776
H	-2.12548323	-2.1895555523	 2.6124676303	 0.089793
H	-2.8813295417	-2.3357427949	 0.9918261714	 0.103215
H	-0.3052844129	-2.6421393807	 0.3529491928	 0.069418
H	-1.9395747893	-0.6782812131	-0.9390619377	 0.068978
