25
gdb 116447	2.44651	1.20999	0.94323	1.2956	88.34	-0.2387	0.0805	0.3192	1388.2992	0.230073	-389.512344	-389.502622	-389.501677	-389.546547	37.673	
C	 0.0619875455	 1.595536254	-0.1088305089	-0.390419
C	-0.0684076332	 0.0748343721	 0.034565464	-0.194746
C	 0.625700845	-0.499865516	 1.2803961268	 0.039299
C	-0.0497027705	-0.0959916336	 2.603537679	-0.211195
C	 0.6957198435	-0.7125806426	 3.7951909665	-0.208791
C	 0.858433015	-2.2192657278	 3.5953036703	-0.068284
O	 1.4836554948	-2.5216920776	 2.3583313772	-0.265499
C	 0.7919763681	-2.0359383938	 1.2050788625	 0.110891
C	-0.4997311903	-2.8248172917	 0.9464269754	-0.411544
H	 1.1140627128	 1.8996333303	-0.1448625406	 0.114904
H	-0.4165557767	 1.9444985932	-1.0292052804	 0.111661
H	-0.4077615943	 2.1260033862	 0.7251465549	 0.118779
H	-1.1311813522	-0.1985987644	 0.0453999559	 0.096136
H	 0.3581155882	-0.4012124367	-0.8588848977	 0.09195
H	 1.6500617673	-0.0997204599	 1.3062965058	 0.071697
H	-0.0766810987	 0.9943239227	 2.7000355234	 0.094765
H	-1.0962853042	-0.43074867	 2.6063320134	 0.092832
H	 1.6904470712	-0.2575613664	 3.8803550357	 0.100671
H	 0.1667285895	-0.5174262924	 4.7354557251	 0.089024
H	 1.5034350487	-2.6541866488	 4.3650726942	 0.101955
H	-0.1224933829	-2.7158005299	 3.6724924948	 0.08297
H	 1.4812562185	-2.2571482881	 0.3811142875	 0.077044
H	-1.2959194398	-2.5893844789	 1.6582871941	 0.116001
H	-0.8824853376	-2.6198638085	-0.0572342817	 0.117557
H	-0.2863307777	-3.8950765116	 1.0174025529	 0.122343
