19
gdb 62935	2.60112	1.67732	1.51976	2.0935	70.34	-0.2381	0.0689	0.307	971.3033	0.159041	-460.135203	-460.127086	-460.126142	-460.167156	32.141	
C	-0.1080482582	 1.6150547537	-0.0100562231	-0.495073
C	 0.0394071841	 0.1020236808	 0.0008534044	 0.437986
O	-1.2280854713	-0.5262899964	-0.0868031747	-0.479294
C	 1.0959029948	-0.6253023337	-0.8864331203	-0.003702
C	 2.4353573619	 0.0983304423	-0.9065180907	-0.07955
O	 2.7098660293	 0.703157224	 0.3574718419	-0.277413
C	 2.1097308806	 0.0757943083	 1.4916041581	-0.083078
C	 0.8276230734	-0.6461180152	 1.1042539984	 0.025375
O	 1.212096078	-1.6588393335	 0.1305991805	-0.302148
H	 0.8485622015	 2.123265169	 0.1141415383	 0.150687
H	-0.5492258333	 1.9423654232	-0.960395288	 0.106419
H	-0.7882498752	 1.9234148699	 0.789942325	 0.127906
H	-1.6721744042	-0.1878553138	-0.8718252551	 0.27553
H	 0.7910555276	-1.013929249	-1.8632853211	 0.076592
H	 3.2162937988	-0.6320179485	-1.1645827007	 0.108628
H	 2.4553390725	 0.9072335088	-1.6463782879	 0.103965
H	 2.7954480707	-0.6605871251	 1.9352817569	 0.109293
H	 1.9282047882	 0.8709328742	 2.2239737559	 0.107288
H	 0.2688978907	-1.0516511391	 1.9516826822	 0.090588
