15
gdb 4508	3.59519	1.78141	1.2078	1.7631	64.62	-0.1857	0.0392	0.2249	963.2841	0.119755	-396.023448	-396.015148	-396.014204	-396.056457	29.707	
C	 0.018336318	 1.457165617	-0.0064379956	-0.496294
C	 0.0317007552	-0.0347115981	-0.0165020845	 0.336477
N	 0.0120813786	-0.7957386942	-1.1021885537	-0.380097
C	 0.0348594346	-2.0821070777	-0.6502611236	 0.29249
O	 0.0237196247	-3.1381703448	-1.500558393	-0.446749
C	 0.0689013227	-2.1423461448	 0.7200448783	 0.14303
N	 0.1018494497	-3.1687058115	 1.6834557589	-0.619841
N	 0.0659818006	-0.7996930319	 1.1019483908	-0.292244
H	 0.9106201821	 1.8725121558	 0.4766319214	 0.13008
H	-0.0098504591	 1.8117727066	-1.0376255369	 0.153591
H	-0.8569719803	 1.8563892905	 0.5193934505	 0.130088
H	-0.001383414	-2.7620038597	-2.388492816	 0.297034
H	 0.9210530527	-3.7586889893	 1.5785967684	 0.246161
H	-0.710773255	-3.7733826862	 1.6187748362	 0.246156
H	 0.0865744894	-0.4901009019	 2.0594972888	 0.260117
