17
gdb 68907	2.62531	1.61972	1.22736	5.2993	68.31	-0.2725	0.0415	0.314	1050.1975	0.134499	-459.010897	-459.002645	-459.0017	-459.043398	31.362	
C	-0.0905923615	 1.5139739431	-0.0949099118	-0.471923
C	 0.0142646415	 0.0251179503	 0.0436306888	 0.353819
C	 1.2514139709	-0.7926113599	-0.2644758827	-0.406263
C	 0.6699611645	-0.7712487294	 1.1339523094	 0.353816
C	 1.3831756839	-0.2760210359	 2.3558173816	-0.471924
O	-0.2323075342	-1.8367628937	 1.4025864083	-0.276045
C	-1.3225707691	-1.7394493885	 0.5918879837	 0.470275
O	-2.2346366334	-2.5010713979	 0.5840967753	-0.367503
O	-1.2080531851	-0.651677533	-0.2199091779	-0.276044
H	 0.8536648424	 1.9899823565	 0.1814313236	 0.128458
H	-0.3173626544	 1.7880188705	-1.1297694743	 0.144957
H	-0.8827851913	 1.9095158571	 0.5475642693	 0.139371
H	 1.1440820705	-1.694075459	-0.8583469838	 0.138681
H	 2.1736702459	-0.2420121844	-0.4169487195	 0.127538
H	 2.0125335138	 0.5825423783	 2.1081349828	 0.128458
H	 0.6689259782	 0.0250792226	 3.1278167658	 0.139368
H	 2.0265471673	-1.0591651668	 2.7683917913	 0.144961
