16
gdb 28973	3.00083	1.49628	0.9992	1.5514	90.87	-0.2003	-0.0207	0.1796	1132.522	0.125796	-363.655309	-363.647451	-363.646507	-363.687217	31.365	
N	-0.008643922	 1.3908161593	 0.1421945734	-0.611562
C	 0.0011859992	 0.0108803898	 0.0477268449	 0.245938
C	-1.194714242	-0.7206038049	 0.0354674173	-0.164052
C	-1.181082809	-2.1074299591	-0.0027602448	-0.104396
C	 0.0258556388	-2.8082571202	-0.0299732364	-0.130783
C	 1.2177827626	-2.0991689093	-0.0225165121	-0.193679
C	 1.229656302	-0.6968900163	 0.0117942966	 0.105054
C	 2.4544671263	 0.0258250603	 0.004462875	 0.20177
C	 3.4723319413	 0.6732065331	-0.0118425902	-0.413778
H	 0.8500218103	 1.8501164848	-0.1249098446	 0.254581
H	-0.8387938736	 1.8534720789	-0.1936724481	 0.247399
H	-2.1386571175	-0.1843759806	 0.0622495956	 0.083733
H	-2.1226507181	-2.6469914192	-0.0116568199	 0.096355
H	 0.0347850786	-3.8915575288	-0.058054255	 0.092768
H	 2.1686533623	-2.6196172249	-0.0491397803	 0.100184
H	 4.3822203909	 1.2204041672	-0.0131007015	 0.190467
