18
gdb 39580	3.44388	1.56261	1.12782	2.323	76.51	-0.2447	0.006	0.2507	1051.2296	0.151364	-401.965035	-401.958244	-401.9573	-401.996078	27.591	
C	-0.0090344164	 1.5843967929	-0.0614659985	-0.322113
C	 1.4900745169	 1.8519307018	-0.0506973347	-0.054397
C	 2.1793124604	 0.8398927814	 0.4833931752	-0.14802
C	 1.211635405	-0.194863592	 0.9868621947	 0.141648
O	 1.5937477033	-1.5708687643	 0.9022491647	-0.244435
C	 0.5094020499	-2.3921346957	 1.0284737426	 0.12046
N	-0.7260891461	-2.11497342	 1.021131312	-0.270304
C	-1.1727586988	-0.7401528466	 0.7421992207	-0.208524
C	-0.0310196997	 0.0566966948	 0.1316330056	 0.02118
H	-0.5016010427	 2.1082320668	 0.7715640105	 0.112229
H	-0.5027540105	 1.9158068163	-0.9802681117	 0.110648
H	 1.9200096212	 2.783029538	-0.4022836621	 0.102493
H	 3.2484862404	 0.7982363402	 0.6493073216	 0.108225
H	 0.9881469048	-0.0020774717	 2.0507475894	 0.090646
H	 0.8424396924	-3.420594741	 1.1558043489	 0.121701
H	-2.0379891732	-0.8062058664	 0.0733134617	 0.111322
H	-1.5353475029	-0.2875484089	 1.6749325003	 0.109194
H	 0.1975891661	-0.3887163358	-0.846167801	 0.098046
