19
gdb 2574	3.79742	2.03196	1.59359	1.6915	66.92	-0.2581	0.0903	0.3484	870.2615	0.170241	-310.909944	-310.901616	-310.900672	-310.942566	30.315	
C	 0.1581942291	 1.2441159469	 0.757527618	-0.381679
C	 0.0153078593	-0.0974094189	 0.0268942789	-0.242995
C	-1.3792273071	-0.6992686874	 0.1217912873	 0.424679
C	-2.4871198041	 0.0749351286	-0.5807144718	-0.246265
C	-3.8887696392	-0.5300062699	-0.4716988342	-0.396876
C	-1.5003116278	-2.1426459593	 0.3827388168	-0.232547
O	-1.7056018591	-1.1929775654	 1.4338477642	-0.2752
H	 1.1983920844	 1.5826499225	 0.7411283524	 0.112438
H	-0.4495364699	 2.0303737609	 0.2996727224	 0.117013
H	-0.1493089147	 1.142450577	 1.8026173319	 0.134144
H	 0.2812146072	 0.0190683219	-1.0317043346	 0.095852
H	 0.7263467727	-0.8129141268	 0.4534823555	 0.100717
H	-2.504486921	 1.0879287152	-0.1605481331	 0.109921
H	-2.2047476995	 0.1918740244	-1.6351849342	 0.09997
H	-4.637644251	 0.1708347004	-0.8513486392	 0.111636
H	-3.9820587789	-1.453553737	-1.0513724258	 0.114398
H	-4.1270905886	-0.7546668405	 0.5714167814	 0.138753
H	-2.387529636	-2.6920030561	 0.0752899926	 0.110328
H	-0.5971541858	-2.7463781364	 0.4697802416	 0.10571
