20
gdb 108491	2.71718	1.52091	1.21567	1.4033	78.15	-0.2417	0.0212	0.263	1105.8517	0.172066	-403.163027	-403.154764	-403.153819	-403.19608	31.646	
C	 0.0362986377	 1.5406200625	 0.0934339892	-0.38222
C	-0.0129636634	 0.0099747659	 0.0618057564	-0.250096
C	-1.4291994805	-0.544221413	-0.0299241194	 0.323332
C	-2.3672751634	-0.3515568398	 1.2022229795	-0.263842
C	-2.6575376013	-1.8854782282	 1.2187765266	-0.244179
C	-1.6654935935	-2.0886968862	 0.0520606531	 0.032983
O	-2.2883417768	-2.4330486065	-1.2053260694	-0.233061
C	-2.480779753	-1.243258837	-1.832430336	 0.104028
N	-2.0771724082	-0.1647328943	-1.3024214783	-0.301423
H	 1.0695596066	 1.8971928471	 0.1416735251	 0.108616
H	-0.4331447936	 1.9574728673	-0.8009124646	 0.142084
H	-0.4933999825	 1.9378895479	 0.9660213771	 0.113895
H	 0.5614217356	-0.3628296448	-0.7956792435	 0.099852
H	 0.4645174578	-0.4002953259	 0.9614680874	 0.089164
H	-1.8478543012	 0.0094786314	 2.0938770473	 0.101997
H	-3.2269798662	 0.2928968178	 1.0113073273	 0.111845
H	-2.3820634722	-2.3996574987	 2.1423538183	 0.107438
H	-3.679343647	-2.1677330109	 0.9566573241	 0.115028
H	-0.8243212771	-2.7655485815	 0.2111280536	 0.086211
H	-2.9862103176	-1.3229427531	-2.7890246338	 0.138348
