18
gdb 65055	2.37269	1.56906	1.16278	2.7778	77.56	-0.2497	0.034	0.2837	1105.822	0.144968	-401.859978	-401.850931	-401.849987	-401.893802	34.429	
C	 0.6103700754	 0.2870125036	 1.2127782077	-0.482413
C	 0.0002483219	-0.0132121108	-0.1382324371	 0.365062
C	 0.3840199992	 0.8118899983	-1.292888481	-0.251481
O	 0.9277962668	-0.4989925192	-1.1257385226	-0.269854
C	-1.3454941791	-0.7283365526	-0.1131497278	 0.08218
C	-2.5497169779	 0.0141148601	-0.6212433011	-0.263794
N	-1.989954004	-1.0936511258	-1.3879614891	-0.339653
C	-1.5160626318	-1.6981412174	 0.9444024979	 0.277679
C	-1.6639986782	-2.491317113	 1.8352246069	-0.427977
H	 1.5627679243	 0.8069730932	 1.0880568742	 0.124579
H	-0.0605276803	 0.9147593384	 1.808411596	 0.126996
H	 0.7841549311	-0.6374448942	 1.7683575707	 0.148072
H	-0.2810114653	 0.9414279151	-2.1464418413	 0.104494
H	 1.0797488129	 1.6362769267	-1.1407222466	 0.117856
H	-3.5193709046	-0.1835426703	-0.1744622968	 0.132023
H	-2.3919582005	 1.0367791332	-0.9543614134	 0.11503
H	-1.412303871	-0.7811378221	-2.1642083882	 0.245593
H	-1.7971800989	-3.2024149434	 2.6126383716	 0.195609
