16
gdb 77017	2.3809	1.25021	0.9809	5.6552	74.16	-0.2743	-0.007	0.2673	1219.2379	0.12331	-396.918984	-396.909894	-396.908949	-396.953632	31.928	
C	-0.1563066517	 1.4617717321	 0.6304930152	-0.429129
C	 0.0885419354	 0.0207373527	 0.2466925938	 0.00291
C	 0.3994294978	-0.3953379277	-1.1712971598	-0.172343
C	 0.5340010883	 0.6297599071	-2.1759240142	 0.296545
N	 0.6624764291	 1.4571869372	-2.9744678823	-0.331789
N	 1.398917742	-0.5177818664	-0.0962580118	-0.095944
C	 2.5698782749	 0.3581276142	-0.1004597217	-0.303711
C	 3.7091123247	-0.3328475646	-0.7144661934	 0.291608
N	 4.6134167521	-0.8616987311	-1.1995209489	-0.290567
H	 0.1869842968	 1.6471908747	 1.6535297612	 0.137492
H	 0.3348856947	 2.1713621963	-0.0380242233	 0.149771
H	-1.2301379171	 1.6688972507	 0.6002741137	 0.145047
H	-0.5041644303	-0.6949159145	 0.8141771573	 0.121294
H	 0.0303622833	-1.3425545711	-1.5538535279	 0.1489
H	 2.4297184912	 1.3136596076	-0.6251364154	 0.165155
H	 2.8231400288	 0.5862955227	 0.9404391076	 0.164763
