10
gdb 282	5.47512	3.91202	2.28171	8.5052	41.06	-0.2349	-0.0376	0.1973	506.6426	0.073524	-338.530072	-338.524237	-338.523292	-338.559249	20.891	
N	-0.0056014586	 1.3643185157	 0.0079687075	-0.480302
C	 0.1096859342	 0.0601990904	 0.0008375486	 0.321464
N	 1.2012635937	-0.662504903	-0.0138587042	-0.480298
H	 0.9771018785	-1.6598268824	-0.0162714712	 0.298615
H	 2.1481836917	-0.3192554569	-0.0219277543	 0.273811
C	-1.2549265355	-0.7524903368	 0.0114870534	 0.406487
O	-2.2363853202	-0.0015495271	 0.0251643627	-0.456089
O	-1.0623065555	-1.9732484468	 0.0039515725	-0.456111
H	 0.7473257112	 2.0333674704	 0.0037700239	 0.27381
H	-0.9891584095	 1.6424551566	 0.0194563911	 0.298613
