18
gdb 59403	2.99976	1.0182	0.9602	3.9292	73.82	-0.2717	0.006	0.2778	1304.7089	0.145384	-439.080194	-439.070523	-439.069579	-439.114712	35.662	
C	-0.176373719	 1.508491639	 0.0137657276	-0.390542
C	 0.0378472756	 0.000425871	-0.0341532813	 0.130309
O	 0.8089644766	-0.2811530902	-1.1911472895	-0.441882
C	 0.7446309144	-0.498806186	 1.2212948691	-0.063221
C	-0.0292108214	-1.1748215533	 2.3231451109	-0.350753
C	 0.8706102454	-1.9938713381	 1.4117761017	 0.224929
O	 0.3000216384	-2.7697674788	 0.3946678576	-0.45261
C	 2.0955101148	-2.5340753176	 1.960145819	 0.24725
N	 3.0614187428	-2.9910511169	 2.4032058348	-0.339566
H	 0.7865433453	 2.0264743659	 0.0613285878	 0.127735
H	-0.6969340105	 1.839232796	-0.8883576018	 0.128416
H	-0.7702791611	 1.7903367421	 0.8879872086	 0.116225
H	-0.939291865	-0.5001045934	-0.0998551894	 0.072363
H	 0.8620774997	-1.2411597292	-1.2646721141	 0.295816
H	 1.6171006949	 0.079231536	 1.5102274195	 0.119829
H	 0.2747442085	-1.0363831401	 3.353988552	 0.140412
H	-1.0935140941	-1.3188137937	 2.1666869195	 0.131997
H	-0.0017815653	-3.6059629325	 0.767559918	 0.303293
