19
gdb 64956	3.08374	1.18802	0.99628	3.0398	77.53	-0.2474	-0.0271	0.2203	1245.5133	0.159301	-419.174322	-419.16533	-419.164386	-419.208449	33.231	
C	 0.1428277181	 1.3622830965	-1.1136694502	-0.465808
C	-0.0016187533	 0.2622243461	-0.0851916562	 0.201003
C	 0.8103415863	-0.9889581576	-0.2457497032	-0.268488
N	 1.1178431099	-0.0502756265	 0.8311494717	-0.337647
C	-1.3732334538	 0.1367483529	 0.5228610043	 0.363448
O	-2.3378924446	 0.6485209921	-0.0161691755	-0.354499
C	-1.5311414242	-0.6388247032	 1.7918341633	-0.110753
C	-2.3888644759	 0.0040558586	 2.8405959338	-0.218893
N	-2.8826943307	-1.1429912623	 2.0930126339	-0.310683
H	 1.1346743453	 1.3320085737	-1.5752439536	 0.10766
H	-0.6129922975	 1.2569654125	-1.8950030553	 0.149764
H	 0.0027825479	 2.346066453	-0.6543879912	 0.132534
H	 0.4156481532	-1.9489450323	 0.0751969925	 0.133113
H	 1.4583639858	-1.0330296082	-1.1173030619	 0.12455
H	 1.9207793856	 0.5238582862	 0.5860639419	 0.238523
H	-0.7060012874	-1.2618756396	 2.1112269346	 0.11565
H	-2.152855645	-0.1794771509	 3.8846800519	 0.125822
H	-2.7911941891	 0.9864177581	 2.6100019412	 0.129394
H	-3.4915569407	-0.7955476489	 1.3502721881	 0.24531
