13
gdb 127206	2.40906	2.04242	1.11301	1.9768	64.29	-0.2807	-0.107	0.1738	987.1375	0.087994	-486.041936	-486.033915	-486.032971	-486.075338	28.255	
C	-0.0581361806	 1.448452938	 0.1904827786	-0.338662
N	-0.0097078563	-0.0101707915	 0.0335798411	-0.205374
C	-1.223640831	-0.6980313877	 0.0255074863	 0.506481
N	-2.3166620585	-0.0792007915	 0.1477499302	-0.548964
O	-1.1474851043	-2.0500601585	-0.121736488	-0.283308
N	 0.1472900298	-2.737364089	-0.2648063531	 0.076598
N	 1.1654168393	-2.0782605167	-0.2508573681	-0.126906
C	 1.2050752164	-0.6281951786	-0.0999934463	 0.502068
O	 2.2739184197	-0.0815857606	-0.1019951434	-0.328333
H	 0.9668474796	 1.8112716652	 0.1781474677	 0.172843
H	-0.6363300739	 1.8844154488	-0.6258189192	 0.163441
H	-0.549610022	 1.6975035501	 1.1322726883	 0.163593
H	-3.1035607882	-0.7241277679	 0.1209588258	 0.246524
