17
gdb 35806	3.10039	1.46356	1.15573	0.9168	73.3	-0.2486	0.0459	0.2945	1061.9508	0.136435	-421.772499	-421.764831	-421.763886	-421.804841	29.423	
C	-0.0500423121	-1.2346036005	-0.0671536752	-0.446279
C	-0.0070700585	-0.0354661233	-0.0046633335	 0.324304
C	 0.0263232723	 1.41262167	 0.080490301	-0.211738
C	-0.4793711533	 1.9942613412	 1.4246048583	-0.109586
O	 0.0416485392	 3.318343835	 1.4694334135	-0.258731
C	 1.3273182709	 3.3042647149	 0.8867117917	 0.052585
C	 2.4488128897	 2.6267085981	 1.7040145726	-0.104394
O	 2.398912938	 1.4483608842	 0.8660308498	-0.285365
C	 1.4277960334	 2.0466521611	-0.0124225749	 0.086162
H	-0.0782509425	-2.2945135228	-0.1232965632	 0.197219
H	-0.5745669079	 1.8480086789	-0.7289911347	 0.11176
H	-1.567060783	 2.0569696237	 1.4890283269	 0.123703
H	-0.1070956262	 1.3831326852	 2.2574522972	 0.117348
H	 1.5323744817	 4.2950842907	 0.4809313168	 0.095935
H	 3.4258377362	 3.121929109	 1.6494936113	 0.105811
H	 2.2022487153	 2.4123316367	 2.7498962177	 0.113652
H	 1.7979265169	 2.1353357378	-1.0375040952	 0.087614
