17
gdb 38147	2.86504	1.98638	1.43403	1.4321	71.94	-0.2318	0.0004	0.2322	913.975	0.138222	-421.812294	-421.80565	-421.804706	-421.843153	27.024	
C	-0.0808693132	 1.4507318148	 0.0715083579	-0.366695
C	 1.2915172152	 0.7670006807	-0.0651267991	-0.167905
C	 2.0440171912	 0.4093288796	 1.1724337227	-0.07151
C	 1.4094046781	-0.5129010879	 1.9060667514	-0.120409
C	 0.0737165488	-0.8773344122	 1.2954874556	 0.010417
O	-0.0641554999	-2.2133769061	 0.7835174909	-0.278387
C	-0.0586486871	-2.1201888812	-0.628622146	 0.004942
O	-0.5332872031	-0.8296436604	-0.9743535942	-0.278801
C	 0.0022957405	-0.0248127563	 0.028780259	 0.407971
H	-0.3427134858	 1.9395303007	 1.0053717131	 0.118545
H	-0.4445686321	 1.9450133775	-0.8235788706	 0.129725
H	 1.8120869882	 0.9054065414	-1.0059661429	 0.100945
H	 2.9968070546	 0.8597596554	 1.4305302347	 0.103966
H	 1.7461206022	-0.914127382	 2.8541925888	 0.103698
H	-0.7547330555	-0.7127614569	 1.9948485622	 0.093116
H	 0.9617077295	-2.2640691119	-1.0225037606	 0.090935
H	-0.7395208716	-2.8681040352	-1.0434682529	 0.119445
