17
gdb 133871	3.23767	2.02287	1.9819	2.1011	70.5	-0.2508	0.0836	0.3344	798.0812	0.139644	-421.754627	-421.749139	-421.748195	-421.784075	24.583	
C	-0.9291224199	-1.7160590341	 0.5196091701	-0.350728
C	 0.5643870251	-1.561934362	-0.0231285962	-0.16861
C	 0.6947026656	-0.4146295226	 1.0170838348	 0.137201
O	 1.4318659992	 0.7760042972	 0.7811184079	-0.268676
C	 0.6269800103	 1.4552475567	-0.1675913473	 0.167394
C	-0.8665798858	 1.3211584973	 0.3743530936	-0.388408
C	-0.6999211955	-0.1821911102	 0.3752599191	 0.216552
C	-0.0254702842	-0.4956806484	-0.9877521112	 0.137198
O	 0.6627799959	 0.6894510159	-1.3598668443	-0.268671
H	-1.0314145207	-2.1118842289	 1.5323227795	 0.110576
H	-1.6413922313	-2.1805351696	-0.1657101282	 0.110575
H	 1.2556655312	-2.3794261985	-0.2383972169	 0.077929
H	 0.7633237758	-0.6916205307	 2.0714345881	 0.07929
H	 1.0236371846	 2.4525786732	-0.350393813	 0.09417
H	-1.5857245679	 1.7248676893	-0.3404422665	 0.117458
H	-0.9777611071	 1.7932954118	 1.3520078561	 0.117459
H	-0.6353556552	-0.8490214565	-1.8221847855	 0.07929
