17
gdb 86289	1.90154	1.65393	1.16439	1.7997	71.06	-0.2462	0.0104	0.2566	1108.9122	0.132891	-458.907916	-458.898485	-458.897541	-458.94172	35.65	
O	 0.177815506	 1.3818068115	-0.0824434178	-0.432731
C	 0.1519349877	-0.0092852029	-0.0225475073	 0.127105
C	 0.4412298349	-0.7353896293	 1.322549314	-0.328557
C	-0.7291927079	-1.7133586348	 1.0163049254	 0.127074
O	-1.6125646847	-2.0809962971	 2.0281730514	-0.432691
C	-1.2733868934	-0.6764803172	-0.0351234709	 0.162086
O	-2.162518852	 0.2115833765	 0.6669266859	-0.490632
C	-1.8435619061	-1.139613943	-1.2783152622	 0.19503
C	-2.320793634	-1.5243992827	-2.3137960459	-0.423717
H	-0.595439713	 1.6807306349	 0.4153417823	 0.28583
H	 0.7683528555	-0.3915793237	-0.8394516199	 0.101599
H	 1.4356388464	-1.1590524956	 1.4711551697	 0.107445
H	 0.1944700933	-0.0902741518	 2.1711392491	 0.107617
H	-0.3867713253	-2.6257024324	 0.522511499	 0.101626
H	-2.1292472605	-1.2881766621	 2.2269500077	 0.285769
H	-2.963433694	 0.3034443372	 0.1423439856	 0.303687
H	-2.7343974029	-1.8691324374	-3.2296423261	 0.203462
