16
gdb 49302	2.94212	1.39075	0.96922	8.4897	77.15	-0.2186	-0.0457	0.1729	1157.7708	0.125503	-437.935919	-437.927919	-437.926975	-437.968758	29.55	
O	-0.2177058926	 0.025701001	-0.2669895257	-0.272112
C	-0.0053592705	 1.210429502	-0.1721707794	 0.088545
C	 1.2950585532	 1.8791917032	-0.0582392138	 0.030889
C	 1.2762776789	 3.2476798223	 0.0383331124	-0.007165
N	 2.3638183076	 4.0312954811	 0.1195656322	-0.290079
C	 3.6886701575	 3.4674223947	-0.1267084702	-0.183206
C	 3.7630854542	 2.0592019781	 0.4618344007	-0.311709
C	 2.5873819803	 1.1695068796	 0.0189467066	 0.290838
O	 2.7468124782	-0.014076992	-0.1801425799	-0.302025
H	-0.8570214592	 1.9393071273	-0.1594005629	 0.039398
H	 0.3220917672	 3.7714792273	 0.0535956439	 0.131778
H	 2.2460568197	 5.028294723	 0.0474687145	 0.264233
H	 3.8769224596	 3.4330016413	-1.2104944632	 0.127976
H	 4.4391563974	 4.1244696564	 0.32073649	 0.126005
H	 4.6952920465	 1.5676894875	 0.1777450291	 0.134226
H	 3.7349761521	 2.1172197371	 1.5580736954	 0.132408
