16
gdb 68934	2.13683	1.70022	1.15411	4.949	72.09	-0.2446	-0.0429	0.2017	1079.9243	0.122177	-437.873723	-437.86519	-437.864245	-437.9071	31.097	
C	 0.050877309	 1.5002613841	 0.1256511896	-0.477844
C	-0.0398225498	 0.005115629	 0.0870135812	 0.275046
C	-1.3313550169	-0.8206043722	-0.0701827174	-0.418192
C	-0.736145417	-1.8202484638	 0.9599163091	 0.364597
O	-1.1859145265	-2.7683716689	 1.5289409446	-0.283384
C	 0.5541978979	-1.0306046516	 1.0837266134	 0.057295
N	 1.1036361033	-0.7837895148	-0.2717016806	-0.375743
C	 1.441797653	-0.8134975309	 2.2478489101	 0.076008
O	 1.2041737691	-1.2052619093	 3.3620023987	-0.244625
H	 1.0617966155	 1.8203895553	 0.3871207944	 0.144198
H	-0.1901157643	 1.9152522861	-0.8597742926	 0.138301
H	-0.6561230126	 1.9180835196	 0.8482439521	 0.13739
H	-2.2292950008	-0.3514621039	 0.3437953223	 0.144041
H	-1.5490985149	-1.1789313437	-1.081213237	 0.127505
H	 0.8972325961	-1.5483935256	-0.9124627179	 0.248646
H	 2.3576136691	-0.2324288893	 2.0016114499	 0.08676
