18
gdb 100845	2.01638	1.20904	0.79444	2.9392	73.6	-0.2771	-0.0531	0.2239	1391.3802	0.144418	-439.099858	-439.089387	-439.088443	-439.136388	35.815	
C	-0.0103762825	 1.5740676808	 0.0633251481	-0.412242
C	 0.0084192298	 0.0411692924	 0.0495423374	 0.008481
C	 0.7961358971	-0.5137783476	 1.2415972895	-0.095225
O	 2.120414266	-0.0201572947	 1.1368905406	-0.419353
C	-1.4422314077	-0.533437379	 0.0343050096	-0.234128
C	-2.1657993588	-0.0855792146	-1.2466213463	 0.165484
O	-3.0186154444	 0.7560917724	-1.2655539765	-0.230481
C	-1.4632931805	-1.9958326699	 0.0854845579	 0.268491
N	-1.4922071513	-3.1516147813	 0.0890212951	-0.319963
H	 1.0144103812	 1.9460650245	 0.104069986	 0.149521
H	-0.4983854843	 1.98914714	-0.8219909401	 0.131536
H	-0.5445343498	 1.9481190176	 0.9444024752	 0.1221
H	 0.5177857285	-0.3063953611	-0.8585335576	 0.107244
H	 0.3169591765	-0.1854372571	 2.1795610401	 0.091495
H	 0.7785481038	-1.6122079926	 1.2234972567	 0.118987
H	 2.6394968837	-0.390459753	 1.8564590026	 0.294637
H	-2.0070823878	-0.1332026783	 0.8833498889	 0.1438
H	-1.8096303295	-0.5939990287	-2.1680529072	 0.109616
