16
gdb 29304	5.4945	0.9852	0.89425	1.461	72.94	-0.2079	0.0075	0.2154	1279.4856	0.125405	-437.908997	-437.901288	-437.900343	-437.94166	29.246	
O	-0.1455021161	 1.315729356	-0.0693982637	-0.430338
C	 0.0140317985	-0.0205898116	-0.07155602	 0.31722
C	 0.225948225	-0.8431326663	-1.1267810822	-0.158764
O	 0.3229941115	-2.1238110452	-0.6119442618	-0.187619
C	 0.1625823118	-1.9828035834	 0.7196292382	 0.421222
N	-0.0253007886	-0.7505827407	 1.099598464	-0.408802
C	 0.213777858	-3.1770555395	 1.5648584545	-0.101817
C	-0.3325020602	-4.5010822559	 1.0599589693	-0.262508
C	 1.146604841	-4.3246788722	 1.2196038726	-0.262506
H	-0.2755344164	 1.5738142996	 0.8512089078	 0.305989
H	 0.3266633594	-0.7265466513	-2.1890286047	 0.142778
H	 0.0728385962	-2.9434334398	 2.6125617258	 0.11365
H	-0.8655216725	-5.1195822395	 1.7728826281	 0.122443
H	-0.7347957147	-4.5123999275	 0.0538918888	 0.133305
H	 1.7429365579	-4.2168955488	 0.3213218931	 0.133303
H	 1.6465319394	-4.8199831638	 2.0440181801	 0.122444
