19
gdb 32680	3.3908	1.2923	0.99762	3.5428	82.21	-0.2142	0.0416	0.2559	1214.7072	0.161462	-382.08026	-382.072081	-382.071137	-382.11375	30.355	
C	-0.1306770481	 1.5924336126	-0.0943867077	-0.384911
C	 0.2328461694	 0.1167667478	 0.0967978175	-0.187606
C	 0.7522294728	-0.5171535739	-1.1924493063	-0.146049
C	 0.8982932655	-2.0979080997	-1.2122635392	-0.20474
N	-0.0955127059	-2.0936131962	-2.3038562048	 0.014562
C	-0.9496773778	-2.6292427601	-3.2392125357	-0.179432
C	-1.5778641997	-1.5126333673	-3.7620962134	-0.091167
N	-1.144199294	-0.3295351148	-3.1777542615	-0.382263
C	-0.2547016273	-0.7558395532	-2.3128471671	 0.391481
H	 0.743863151	 2.1793183829	-0.3959618283	 0.115281
H	-0.89288945	 1.7052944015	-0.8714621759	 0.151489
H	-0.5195396238	 2.0244007006	 0.8323869765	 0.113534
H	 0.9957229126	 0.01371697	 0.8791490279	 0.097192
H	-0.6483827771	-0.4402209334	 0.4390504768	 0.102984
H	 1.6674347544	-0.0127780078	-1.5218932065	 0.098014
H	 1.8769180487	-2.4859595679	-1.506577332	 0.128097
H	 0.5515352968	-2.6014282318	-0.305620658	 0.128511
H	-1.037285556	-3.6797271751	-3.4561882303	 0.129576
H	-2.3272462514	-1.4992161542	-4.5398189319	 0.105448
