24
gdb 76617	2.43508	1.16053	0.97437	2.554	86.44	-0.2305	0.0825	0.3129	1386.5507	0.214206	-405.534947	-405.523963	-405.523019	-405.570202	41.354	
C	-0.0794949464	 1.4189439897	 0.7739702519	-0.423895
C	 0.0378213844	-0.0309516464	 0.3586008531	 0.002802
C	 0.240886047	-0.4275517363	-1.0629435947	-0.047166
N	 1.305543334	-0.6377452619	-0.0861836391	-0.125875
C	 2.5198995435	 0.1601865627	-0.1723313305	-0.319685
C	-0.3551666829	-1.7059663655	-1.659699014	 0.346011
C	-1.8227829173	-1.495030729	-2.0344116644	-0.39786
C	 0.4735981426	-2.1335376817	-2.8834806643	-0.412814
O	-0.3197019057	-2.7322339156	-0.6751145136	-0.474522
H	 0.42105741	 2.0997321256	 0.0814037918	 0.119602
H	-1.1357931209	 1.7050778528	 0.8107320552	 0.128041
H	 0.3393073188	 1.5804598769	 1.7735568065	 0.123809
H	-0.5382223759	-0.7182332974	 0.9752960609	 0.099923
H	 0.3794179852	 0.3914146029	-1.7711654045	 0.070072
H	 2.3683253031	 1.1806327879	-0.5526324257	 0.104854
H	 2.9834196136	 0.2281385897	 0.8172613221	 0.124336
H	 3.2250344381	-0.3444658442	-0.8403336756	 0.126827
H	-1.9267946985	-0.7189611735	-2.7995124196	 0.1051
H	-2.2456932117	-2.4244241281	-2.426930561	 0.121464
H	-2.4019429901	-1.2002803894	-1.1552449415	 0.116976
H	 1.520872947	-2.2820649764	-2.6001376166	 0.111533
H	 0.0914086734	-3.0782718624	-3.280114516	 0.119015
H	 0.4376013244	-1.3814657697	-3.6796453384	 0.101944
H	 0.5201434143	-2.597598511	-0.2070547521	 0.279508
