15
gdb 79496	2.2931	1.90651	1.22297	2.7051	72.27	-0.2357	0.03	0.2657	996.2503	0.110495	-420.486485	-420.478862	-420.477918	-420.51842	29.716	
O	-0.0385283212	 1.468602379	-0.0832480641	-0.432015
C	 0.0466094962	 0.0662256842	-0.0418262492	 0.03688
C	 0.0541853166	-0.6140196161	 1.3415424807	-0.163847
C	-1.4756860019	-0.3687724705	 1.5375332982	 0.052526
O	-1.7785558408	-1.7552216351	 1.8513792254	-0.321909
C	-0.7633574071	-1.8297610755	 0.8131793251	 0.03186
C	-1.3341006659	-0.6175382967	-0.0184101656	 0.237798
C	-2.3583862278	-0.630260619	-1.0121991684	 0.081075
C	-3.2146834558	-0.6375733694	-1.8569451378	-0.388543
H	 0.8511197809	 1.8311426212	-0.0301886169	 0.28959
H	 0.7552683813	-0.3279336787	-0.7819052157	 0.078649
H	 0.8144343337	-0.6324366887	 2.1202142585	 0.091399
H	-2.0086329846	 0.423059642	 2.0580857993	 0.116015
H	-0.4368721815	-2.806146912	 0.4593028443	 0.107166
H	-3.9752679621	-0.6438918448	-2.5979134139	 0.183354
