20
gdb 61682	4.36345	0.81898	0.73929	4.9102	78.01	-0.2366	0.0317	0.2684	1543.9107	0.17038	-440.287496	-440.277828	-440.276884	-440.323568	33.546	
C	-0.3315461522	 1.4154171046	 0.0454162539	-0.348712
N	-0.0501999314	-0.0111895571	-0.0558789492	-0.037281
C	-0.1020469613	-0.8232755994	 1.1430099273	-0.198492
C	-1.5109226942	-1.0697719111	 1.673538848	 0.161298
C	-1.6355036221	-1.8415257934	 3.0053579869	-0.297151
C	-2.4063673163	-0.5965156547	 3.4879063111	-0.060817
O	-2.1166459235	 0.1073859757	 2.2604229623	-0.28851
C	 0.30525755	-0.5502197683	-1.2579338346	 0.152713
O	 0.3845298309	 0.0486167809	-2.3095583438	-0.342168
H	 0.3879914661	 1.8987581925	 0.7179049463	 0.120023
H	-0.2366224463	 1.83906466	-0.9541148847	 0.162538
H	-1.3361967216	 1.5879403449	 0.4379907878	 0.154397
H	 0.3505597344	-1.7970705447	 0.9190998352	 0.117121
H	 0.495730007	-0.3533951873	 1.9366317065	 0.107498
H	-2.1398485041	-1.4646765154	 0.8633044181	 0.083438
H	-2.1898509007	-2.779787072	 2.9719245058	 0.117564
H	-0.6814782818	-2.004527577	 3.512627967	 0.113401
H	-3.4846583692	-0.7454995258	 3.624653851	 0.107813
H	-2.0055835014	-0.0750541247	 4.3640170395	 0.110242
H	 0.5219570077	-1.6340916878	-1.1690064946	 0.065085
