16
gdb 45449	2.87979	1.65566	1.20571	5.1319	71.51	-0.2297	-0.0572	0.1725	1011.3885	0.126953	-434.066625	-434.05917	-434.058226	-434.098778	28.521	
N	-0.0676205339	 1.3263699591	 0.2321682725	-0.54002
C	-0.0293436513	 0.0649937994	 0.0679787409	 0.278065
N	-1.1127252796	-0.7750024474	 0.0112559324	-0.309812
C	-0.8299510777	-2.1696811146	-0.2444619541	-0.010827
C	-0.9216410073	-2.6498323258	-1.7215949888	-0.175678
N	 0.5106722339	-2.3220153881	-1.891960989	-0.308445
C	 0.7119981917	-2.2122316013	-0.4233322333	-0.134798
C	 1.2072263436	-0.813130323	-0.0766404322	 0.387665
O	 2.3394727981	-0.4260042993	 0.0371250631	-0.312452
H	 0.8940185855	 1.6720236955	 0.253494173	 0.232365
H	-2.0485427779	-0.4027566952	 0.0240814878	 0.256095
H	-1.2880642795	-2.8250117573	 0.4996322051	 0.095668
H	-1.1565141596	-3.7209557469	-1.7825698336	 0.100689
H	-1.5953970935	-2.0938709857	-2.3817965727	 0.112182
H	 1.087949006	-3.0055093844	-2.3647215907	 0.234885
H	 1.2632917113	-3.0175654252	 0.0688806395	 0.094419
