19
gdb 32875	6.19381	0.79756	0.71761	2.8922	80.25	-0.2056	0.0416	0.2472	1602.5377	0.159261	-419.244779	-419.235232	-419.234288	-419.280422	33.421	
C	 0.0323301412	 1.3375823636	-0.0365124073	-0.226174
O	 0.1671342638	-0.0648687269	-0.0533158215	-0.249853
C	 0.5753038246	-0.5945673626	 1.1924091393	-0.170525
C	 0.6146484808	-2.0852812543	 1.0726598108	 0.326837
N	 1.1635963424	-2.9225447984	 1.9232239573	-0.365478
C	 0.9211575534	-4.1843561637	 1.4141704045	 0.277826
C	 1.3999336271	-5.4148079711	 2.1135935915	-0.488895
C	 0.2190825295	-4.0856655515	 0.2396920529	-0.192538
N	 0.0243927747	-2.7351069848	 0.036127921	-0.259275
H	 0.9856630059	 1.8332006265	 0.2018171629	 0.11303
H	-0.2876358203	 1.6468113151	-1.034162306	 0.129841
H	-0.7194693916	 1.664982592	 0.6981825371	 0.110704
H	 1.5685106392	-0.219614424	 1.4839101866	 0.120548
H	-0.1278518691	-0.290044016	 1.9869487644	 0.111568
H	 0.9700703022	-5.4915508836	 3.1184179472	 0.129254
H	 1.1267538244	-6.3155041174	 1.5568197456	 0.1135
H	 2.4889928308	-5.4032304357	 2.231579425	 0.129888
H	-0.1438976243	-4.8260889109	-0.4536226654	 0.119877
H	-0.4220449148	-2.2774516863	-0.7405606461	 0.269866
