15
gdb 17754	2.96801	2.78709	1.89638	2.4806	64.02	-0.2051	0.062	0.2671	741.0112	0.117655	-362.535612	-362.528842	-362.527898	-362.56607	26.641	
C	-0.0458376427	 1.473728549	 0.0120429116	-0.521394
C	-0.0526469764	-0.0124565525	-0.0180984657	 0.335374
C	-0.1218135405	-1.0392717652	-1.1449569201	-0.268683
C	 0.8028899853	-1.9371155627	-0.2938940269	-0.04183
C	-0.171898565	-1.9684059509	 0.8291447981	-0.149219
N	 0.8961950559	-0.9040131939	 0.7963035889	-0.201253
C	-1.1379009161	-1.0460776378	 0.0177901959	 0.320757
O	-2.4888845531	-0.8509627919	 0.0209727881	-0.448464
H	 0.9108930187	 1.8718198106	-0.3426237089	 0.129308
H	-0.842179689	 1.8683799938	-0.6269612087	 0.131383
H	-0.212881561	 1.8417392314	 1.0303101985	 0.133806
H	-0.2869259482	-0.9109115635	-2.205656031	 0.094908
H	 1.6289572906	-2.5943751266	-0.541434689	 0.094643
H	-0.2889328473	-2.6382235146	 1.6738723029	 0.097764
H	-2.9096035611	-1.5642228353	-0.4737026737	 0.292901
