12
gdb 4153	3.62759	1.50983	1.1525	4.1798	59.01	-0.2793	-0.0323	0.247	964.5825	0.082664	-414.588373	-414.580987	-414.580042	-414.620556	25.753	
O	-0.1299642027	 1.3753930772	 0.0692965567	-0.377943
N	 0.0394017816	-0.0039722271	 0.1838466041	-0.194772
C	-1.0500725473	-0.6147629279	 0.0211358432	 0.349654
C	-2.5040819167	-0.3356757233	-0.2570344997	-0.16229
O	-2.7760366819	-1.7632091923	-0.1867707495	-0.274956
C	-1.3917813386	-2.0948142531	 0.0698405411	-0.088856
C	-0.8024278938	-2.9431383703	-0.9703929811	 0.296399
N	-0.3330332331	-3.612563691	-1.7862847578	-0.31176
H	 0.7651675816	 1.7094119306	 0.2002497002	 0.320716
H	-3.039767874	 0.2299426	 0.5136768325	 0.143382
H	-2.7281609319	 0.0841505817	-1.2445412471	 0.149369
H	-1.2588767533	-2.5740777043	 1.0479284874	 0.151056
