18
gdb 58084	1.84958	1.51066	1.31885	4.1595	76.67	-0.2575	-0.0134	0.2441	1123.3992	0.145329	-398.130091	-398.119947	-398.119003	-398.164722	36.267	
C	 0.0622225153	 1.4658522108	-0.0395265314	-0.344261
N	 0.0018535427	 0.0065942411	 0.0434108314	-0.07141
C	 0.8094372001	-0.4941151387	 1.1584731725	-0.355697
C	-1.3605173055	-0.5336729973	 0.0238264528	-0.031704
C	-2.1590132541	-0.068148579	-1.2200141945	-0.426772
C	-1.2846472953	-2.0124780571	-0.0335064464	 0.317846
N	-1.2485077377	-3.1632588538	-0.116083905	-0.332059
C	-2.1275661214	-0.1547991397	 1.2513621662	 0.293055
N	-2.6589410705	 0.2212932398	 2.2062856725	-0.333864
H	 1.1146825019	 1.7584983682	-0.0437154277	 0.137774
H	-0.3816848242	 1.8238818213	-0.9697330598	 0.132854
H	-0.430049664	 1.9704549369	 0.8085578422	 0.127598
H	 0.4586582006	-0.1354226868	 2.1399010719	 0.128141
H	 0.806585754	-1.5861802887	 1.1633803737	 0.157006
H	 1.8394159006	-0.1587380399	 1.0158570317	 0.134274
H	-1.556049557	-0.2520950095	-2.1113289981	 0.156157
H	-3.0911710952	-0.6311268821	-1.2893186103	 0.160067
H	-2.4026578603	 0.9919044246	-1.1478590917	 0.150995
