19
gdb 78205	2.25612	1.5753	1.38709	2.7819	75.92	-0.2339	-0.0102	0.2237	1058.7389	0.157181	-423.01737	-423.008242	-423.007298	-423.050607	34.753	
C	-0.1944788934	 1.625598184	-0.0352983691	-0.457
C	-0.0069178332	 0.110078474	-0.0440870304	 0.174474
C	-1.3268467327	-0.6041962561	 0.2963498575	-0.429091
C	 0.6829471645	-0.5673512417	-1.2555578412	-0.121918
C	 2.1204903133	-0.240857669	-1.384747204	 0.088218
O	 2.6137466972	 1.0322580743	-1.0884533432	-0.411658
C	 1.7407593954	-1.2495697925	-0.3162864549	-0.262086
C	 1.1019874168	-0.5271534493	 0.8388759216	 0.400589
O	 1.2762751427	-0.5582657008	 2.024774811	-0.334578
H	 0.730123422	 2.1456876659	-0.2815884254	 0.146182
H	-0.9636230321	 1.919713132	-0.7588560809	 0.10947
H	-0.5301154408	 1.9516162784	 0.9550226224	 0.12315
H	-2.1018488094	-0.3368594374	-0.4300995071	 0.116116
H	-1.2147866121	-1.6932845841	 0.2888797941	 0.117535
H	-1.6704434911	-0.305675104	 1.2907083128	 0.134315
H	 0.1372401518	-1.0436554956	-2.0616851196	 0.100854
H	 2.6043482157	-0.7111543309	-2.2428071802	 0.102635
H	 3.4761326112	 0.9304321809	-0.671467585	 0.294407
H	 2.1546856742	-2.2509170581	-0.3050305786	 0.108386
