22
gdb 93893	2.64137	1.47535	1.17291	2.0667	81.59	-0.2186	0.0685	0.2871	1148.5667	0.195713	-404.331924	-404.32333	-404.322385	-404.364688	34.444	
C	-0.0153368867	 1.5680898231	 0.0105678754	-0.392849
C	 0.0289253253	 0.0417599698	-0.0322929363	 0.069773
C	 0.5595022687	-0.4987206061	-1.3722583792	-0.208938
C	 0.7119656637	-2.0182366907	-1.2990101749	-0.234512
C	 1.7677090947	-2.4111626102	-0.2556055681	 0.100532
O	 3.0875597577	-2.1276505414	-0.7273661547	-0.432859
C	 1.5661592577	-1.664528452	 1.0646206067	-0.026161
C	 2.1831855702	-0.3193452241	 1.2406886145	-0.237765
N	 0.7351281871	-0.4542830865	 1.15951252	-0.094207
H	 0.9876853686	 1.991357366	-0.1103301917	 0.114308
H	-0.64642815	 1.9597490819	-0.7935151905	 0.108688
H	-0.4161076651	 1.9127738718	 0.9677582082	 0.122835
H	-0.9998445041	-0.3321816645	 0.0752623254	 0.075489
H	-0.1379732607	-0.2155410184	-2.1680941119	 0.092097
H	 1.5254165668	-0.044175172	-1.6228298551	 0.104845
H	-0.2482212549	-2.4758461494	-1.0259294254	 0.09835
H	 0.9941242699	-2.4399355091	-2.2723237237	 0.079615
H	 1.6810492364	-3.4871472396	-0.0454013274	 0.063273
H	 3.2111497094	-2.6124665988	-1.5507962945	 0.27767
H	 1.478688727	-2.3086975552	 1.9362864296	 0.08728
H	 2.5712435287	-0.0178319291	 2.2104130292	 0.106839
H	 2.7366862496	 0.0688500943	 0.3904011944	 0.125694
