14
gdb 61699	2.33553	1.19018	0.95675	3.8499	69.21	-0.2646	-0.0396	0.2249	1222.9879	0.096202	-436.651651	-436.642008	-436.641064	-436.686597	33.621	
O	 0.0898632262	 1.4651455305	 0.0166056407	-0.415851
C	 0.0598529522	 0.0454400287	 0.0279733325	-0.010622
C	 0.7447964799	-0.3891703189	-1.2863152929	-0.285717
C	 0.1043426038	 0.2415040859	-2.515582905	 0.160377
O	 0.7371255764	 0.5852785459	-3.4766921321	-0.234434
C	 0.7582630993	-0.5115831447	 1.1927922581	 0.308137
C	 1.3452467794	-0.9416195343	 2.1476291363	-0.406493
C	-1.3529962979	-0.4288903165	 0.0517510362	 0.272817
N	-2.4555720742	-0.7733818118	 0.0719022617	-0.329971
H	-0.2547363571	 1.7891492146	 0.8576839616	 0.304112
H	 1.7983086522	-0.1064503326	-1.2463274496	 0.154989
H	 0.6805363016	-1.479583572	-1.3784777863	 0.155986
H	-1.0020520026	 0.3338356452	-2.4811995163	 0.10725
H	 1.8600460509	-1.32673409	 2.9941970151	 0.21942
