23
gdb 106964	3.36506	1.05153	0.98578	1.7326	85.98	-0.2425	0.0864	0.3288	1371.1194	0.20341	-388.273798	-388.263894	-388.26295	-388.308126	37.971	
C	 0.0229284422	 1.5298512397	-0.3316966714	-0.378584
C	 0.0448685796	 0.0573511432	 0.102093478	-0.300872
C	-1.3299106453	-0.5077391649	 0.2821298839	 0.448729
C	-2.3657847373	-0.200682121	 1.379156377	-0.356544
C	-2.9482743339	-1.6583063699	 1.1865397633	 0.320417
C	-2.6642645795	-2.5565456531	 2.3891927713	-0.447914
C	-4.4012156859	-1.7431621636	 0.7312957745	-0.447538
C	-1.8938932886	-1.8508379739	 0.0705223444	-0.091452
O	-2.0900895128	-0.817868565	-0.9034189088	-0.300329
H	 1.0384906132	 1.9139911592	-0.4644691468	 0.112792
H	-0.5124433808	 1.6435781578	-1.2788438613	 0.134598
H	-0.4771879814	 2.1560627247	 0.4145695747	 0.118812
H	 0.5718635996	-0.5451723056	-0.6462589196	 0.109276
H	 0.597159853	-0.0463103008	 1.0447175659	 0.100116
H	-1.9272214811	-0.0532589121	 2.3699964762	 0.098814
H	-3.0423841078	 0.6272127662	 1.1521602658	 0.102565
H	-3.2711655317	-2.2582872247	 3.2511127628	 0.117077
H	-2.8990205905	-3.6029876692	 2.1621433307	 0.113254
H	-1.6109468216	-2.5073465361	 2.687201005	 0.110547
H	-4.5536652644	-1.1445638705	-0.1702350019	 0.131708
H	-4.6857224436	-2.7783844979	 0.5091103341	 0.107622
H	-5.07814269	-1.373175038	 1.5098309711	 0.108953
H	-1.4334009914	-2.7731496246	-0.2720835789	 0.087954
