19
gdb 26396	4.31808	0.91977	0.78716	1.7473	78.69	-0.2071	0.0288	0.2359	1453.6016	0.158843	-423.058386	-423.04938	-423.048436	-423.09321	33.324	
C	 0.0174741743	 1.5103202698	 0.1824683098	-0.400002
C	-0.1789148435	 0.0076725555	-0.0205504999	 0.128068
O	-1.477384418	-0.2704033289	-0.5443618219	-0.425952
C	 0.8264385855	-0.5714568607	-1.0217610047	-0.31336
C	 0.8096785079	-2.0625324173	-1.1100684024	 0.357365
C	-0.1711930247	-3.0063774943	-1.1521578747	-0.253136
C	 0.4866367712	-4.2763614748	-1.2495900773	-0.175174
C	 1.817435182	-4.0107070459	-1.2621051416	-0.026795
O	 2.0335585228	-2.6701046957	-1.1761118051	-0.179504
H	 1.0033405601	 1.7270257371	 0.6065461592	 0.117361
H	-0.0798679688	 2.0416278776	-0.769615757	 0.125717
H	-0.7356432254	 1.9085140021	 0.8718947301	 0.104703
H	-0.0451099308	-0.510569522	 0.9420761396	 0.073488
H	-2.1274813736	 0.0176779564	 0.1039493222	 0.282409
H	 0.61603939	-0.1202529009	-2.0012955667	 0.122797
H	 1.8363817043	-0.2598820828	-0.7381603163	 0.115716
H	-1.2287982775	-2.8053525878	-1.1195034702	 0.115937
H	 0.0262592506	-5.2506813291	-1.3026805627	 0.104383
H	 2.7016368537	-4.6235320184	-1.3214216304	 0.125978
