14
gdb 18653	3.42902	2.31058	1.5567	3.9274	64.02	-0.2466	-0.0586	0.188	790.5054	0.108397	-382.552753	-382.546475	-382.54553	-382.583191	24.071	
O	 0.0438085609	 0.0569068374	 0.5048903466	-0.335071
C	-0.0198058802	 1.2067835584	 0.1168037214	 0.401909
C	-1.2985213169	 1.8980353515	-0.1375625144	-0.158215
C	-1.3779702449	 3.0337081664	-0.8411026316	-0.038223
C	-0.1991970118	 3.7469674791	-1.4374605014	-0.309853
C	 1.1358675397	 3.2602241752	-0.9218967236	 0.051623
O	 1.3043158369	 3.2812337042	 0.4871495843	-0.242885
C	 1.2313790753	 1.9981169695	-0.1571239562	-0.081484
H	-2.1855769709	 1.3963241379	 0.2351503801	 0.115184
H	-2.3519067094	 3.4795611018	-1.0295472953	 0.113898
H	-0.2262583077	 3.6404417738	-2.5315914764	 0.132747
H	-0.2858417262	 4.8258423608	-1.2487400715	 0.135798
H	 2.0120175121	 3.5827210523	-1.4845000847	 0.104187
H	 2.151304243	 1.4177804018	-0.1447932873	 0.110385
