13
gdb 80216	2.29972	1.63448	1.20351	4.7582	65.96	-0.2787	-0.0209	0.2578	1011.3072	0.088677	-452.712577	-452.704972	-452.704028	-452.744802	28.309	
O	 0.0008693423	 1.3941296059	-0.0121413249	-0.403069
C	-0.0574590407	 0.0263128555	 0.0150420825	 0.095287
C	-0.4934687849	-0.7500618539	 1.189845194	-0.023722
O	-1.4955531489	 0.0141604888	 1.8971770894	-0.289434
C	-2.3944629259	-0.122786668	 0.8214237993	 0.3984
N	-3.5955016566	 0.1889109729	 0.7200141063	-0.527729
C	-1.3967845787	-0.7997943642	-0.0622608873	 0.011787
C	-1.624777669	-1.8086928905	-1.0343666828	 0.207617
N	-1.7796277388	-2.6315920464	-1.8329586517	-0.33948
H	-0.4517187398	 1.7310924354	 0.7728561562	 0.31027
H	 0.7103357911	-0.4284138152	-0.6036800556	 0.157918
H	 0.0075988436	-1.5423369366	 1.7304818095	 0.154324
H	-3.9601111437	 0.6248156161	 1.567376085	 0.24783
