17
gdb 125254	3.80381	1.05889	0.83261	1.2433	80.22	-0.1991	0.0192	0.2183	1349.2837	0.1381	-414.22239	-414.213618	-414.212674	-414.256649	31.689	
C	-0.0318813016	 1.5657619657	 0.2995727213	-0.503983
C	 0.0048220662	 0.0970543283	 0.0293343187	 0.398066
C	-0.0099890219	-0.6106535983	-1.1573767287	-0.390986
C	 0.0421543905	-1.9666841574	-0.75791418	 0.447608
N	 0.0531308255	-3.1233392366	-1.5311722946	-0.37301
C	 0.0145838822	-3.223314824	-2.8951621534	 0.081877
N	-0.0387548606	-2.2209884235	-3.6842969071	-0.460507
N	 0.0863462194	-2.1059226176	 0.5650686541	-0.330298
N	 0.0621139862	-0.8293608814	 1.0185055673	-0.255016
H	 0.8523249854	 1.9003735308	 0.8543064156	 0.134275
H	-0.0622505993	 2.1158979641	-0.6427511418	 0.147374
H	-0.9153230332	 1.8512365489	 0.8823877075	 0.134791
H	-0.0513867964	-0.2358736923	-2.1633565128	 0.139888
H	 0.0937553642	-3.9774678394	-0.999098083	 0.257249
H	 0.0359950701	-4.2734252208	-3.2109590665	 0.086834
H	-0.0583746593	-2.5429013236	-4.648655651	 0.218826
H	 0.0877933526	-0.670460713	 2.0106392646	 0.267011
