15
gdb 60782	2.22151	1.20794	0.9498	3.401	73.54	-0.2747	-0.0154	0.2593	1246.2423	0.110036	-416.791609	-416.78201	-416.781066	-416.826788	32.993	
C	 0.0374117587	 1.4903349983	 0.0186277349	-0.361113
N	 0.0284655101	 0.0335347418	 0.0211816708	-0.020148
C	 0.0494394449	-0.6673001625	 1.2014094601	 0.168778
O	 0.0739581874	-0.1718333302	 2.3019340687	-0.321264
C	-0.014608428	-0.6771758055	-1.2451348901	-0.352163
C	-1.218672673	-0.3829313529	-2.0328668372	 0.350358
C	-2.2121912341	-0.1469927735	-2.6626175661	-0.415252
C	 1.2037685364	-0.4117246134	-2.0491049086	 0.318072
N	 2.1627264608	-0.2017721043	-2.6567496314	-0.316211
H	 0.9214558969	 1.869726831	-0.5043706857	 0.151712
H	-0.8612328732	 1.8789731742	-0.4699688857	 0.145022
H	 0.0612594871	 1.8126326936	 1.0589187966	 0.177251
H	 0.0395872604	-1.7620351663	 1.0297037478	 0.084399
H	-0.0075008046	-1.750205971	-1.0083006794	 0.16878
H	-3.0912043999	 0.0601865806	-3.2232921546	 0.221779
