18
gdb 26501	3.63463	1.22327	0.9947	1.7397	77.83	-0.2159	0.0225	0.2383	1193.455	0.148766	-401.950267	-401.942297	-401.941352	-401.983087	30.772	
C	-0.2790592669	 1.3118686032	-0.8069508531	-0.484365
C	-0.0277094345	 0.026584313	-0.0439821295	 0.187644
C	 1.1033314894	-0.8411249456	-0.4930391119	-0.269319
N	 1.2077147808	-0.0871894652	 0.7644399947	-0.342477
C	-1.2211723883	-0.6009587857	 0.5781855261	 0.264864
C	-2.5329820734	-0.378904932	 0.2852620428	-0.122653
O	-3.3412062363	-1.1530630279	 1.0593534157	-0.150155
C	-2.5261067078	-1.8823019118	 1.8670068436	 0.005373
C	-1.2249158889	-1.5908094078	 1.6226512388	-0.301318
H	 0.6503937786	 1.6969257664	-1.2381763504	 0.110024
H	-0.9833331311	 1.1520850842	-1.6307554856	 0.127027
H	-0.7000505216	 2.0807420207	-0.1504610829	 0.129421
H	 1.0335380861	-1.9188218104	-0.3754502162	 0.119406
H	 1.6818111494	-0.5146789918	-1.3542452926	 0.109696
H	 1.7838593637	 0.7400249731	 0.6283057447	 0.228242
H	-3.0389130268	 0.2657435327	-0.4136059496	 0.129583
H	-3.0231365537	-2.5467305305	 2.5544110564	 0.134024
H	-0.3575168788	-1.9895161346	 2.1230629789	 0.124983
