19
gdb 30305	2.89609	1.59805	1.08449	3.5042	81.77	-0.204	0.0345	0.2385	1119.7259	0.163034	-382.122158	-382.114478	-382.113534	-382.154278	30.074	
C	-0.0454132685	 1.6083067492	-0.0396003733	-0.396293
C	-0.0000786677	 0.078390943	 0.0522179056	-0.115783
C	 0.7459391889	-0.5943053824	-1.159883872	-0.206037
C	 1.5571451729	-1.8248131766	-0.630946993	-0.346294
C	 1.6345027443	-1.5132856037	 0.833864803	 0.265887
C	 0.7990710841	-0.4948384027	 1.1783224803	 0.313977
N	 0.9170313068	-0.3654297057	 2.5417441618	-0.384212
C	 1.8339160382	-1.3127370555	 2.9354649712	-0.017
N	 2.284437905	-2.0305465659	 1.9269958904	-0.342509
H	 0.9662518292	 2.0266181105	-0.0688317068	 0.119834
H	-0.5719069295	 1.9275701584	-0.945169415	 0.117345
H	-0.569217493	 2.0482395082	 0.816572945	 0.103729
H	-1.0369014352	-0.2889862756	 0.0947276549	 0.080907
H	 0.05066655	-0.863327348	-1.9595404894	 0.097471
H	 1.4443674015	 0.1399491123	-1.5757287482	 0.106
H	 1.0268544001	-2.7677758508	-0.817388039	 0.107637
H	 2.5318101889	-1.9103971476	-1.1220483461	 0.11009
H	 0.4607814703	 0.3004929306	 3.1418522801	 0.262122
H	 2.1318936937	-1.4172574479	 3.9685259306	 0.12313
