22
gdb 119579	2.66645	1.10088	0.96147	1.8832	83.16	-0.2286	0.0846	0.3132	1377.6403	0.193235	-404.294087	-404.284435	-404.283491	-404.328874	35.551	
C	 0.0428730131	 1.3482510421	 0.0995716953	-0.221132
O	 0.1841342746	-0.0512776643	 0.1023455287	-0.233606
C	 0.4220578577	-0.5812873351	-1.1842953289	-0.170716
C	 0.5722510548	-2.068110598	-1.0886738604	 0.329794
C	 0.2752410279	-2.9669656423	-2.221882442	-0.300039
N	-0.6223305796	-3.0122589415	-1.0525131144	-0.161005
C	 0.118237092	-3.8289827483	-0.024507689	-0.178538
C	 1.2868033726	-2.8064116573	 0.0511157389	-0.039362
C	 2.7293717264	-3.2619122559	-0.1291085621	-0.418133
H	 0.9459550467	 1.8506194528	-0.2836195505	 0.101481
H	-0.8133189219	 1.6715346423	-0.5134861043	 0.106247
H	-0.1245325506	 1.6628117189	 1.132466974	 0.12754
H	-0.4105225858	-0.3412666766	-1.8665468591	 0.09428
H	 1.337276417	-0.1351109031	-1.6155739117	 0.08572
H	-0.1944644962	-2.5329378466	-3.100065372	 0.115766
H	 0.9161227686	-3.82052637	-2.4337859351	 0.107661
H	-0.4703172288	-3.9087973414	 0.8911958664	 0.110627
H	 0.3723854402	-4.8359412256	-0.3756697739	 0.096782
H	 1.1970880818	-2.211129986	 0.9621590447	 0.101045
H	 2.8628158193	-3.8500840005	-1.0429039008	 0.111607
H	 3.409753224	-2.4046309001	-0.1807324107	 0.117539
H	 3.0482803761	-3.8848676936	 0.7139371968	 0.116441
