13
gdb 132129	3.0656	1.39572	0.95907	3.4845	65.64	-0.2056	-0.0423	0.1634	1096.3435	0.089269	-497.907771	-497.90035	-497.899406	-497.939591	28.255	
O	-0.0609720399	 1.4276884472	 0.0112263999	-0.447025
C	 0.0092052474	 0.0622995421	 0.0032460354	 0.16023
C	 1.1715240061	-0.639613847	-0.0070894137	 0.280389
F	 2.3615123789	-0.0372131596	-0.0104331007	-0.064333
N	 1.1987674316	-1.9967313956	-0.0147562354	-0.440204
C	 0.0538694421	-2.8304701586	-0.0129559318	 0.432881
O	 0.1818871252	-4.0422548371	-0.0203745229	-0.397305
C	-1.1788877993	-2.0650983118	-0.0018696341	-0.258254
C	-1.1888537633	-0.7026774746	 0.0056885449	-0.099496
H	 0.8346874275	 1.7834270238	 0.0075717975	 0.303749
H	 2.0929187927	-2.4690189749	-0.0223656338	 0.272934
H	-2.096413427	-2.6387407901	 0.0000664876	 0.124223
H	-2.1248387919	-0.153172244	 0.013916127	 0.13221
