21
gdb 22568	2.46559	1.29636	1.00399	0.9852	82.86	-0.2051	0.0063	0.2114	1270.0338	0.179718	-420.341555	-420.331199	-420.330254	-420.376437	37.926	
C	-0.281286264	 1.5121129	-0.0587759639	-0.409207
C	-0.007138701	 0.0114556692	-0.207389166	-0.052869
N	 0.666016789	-0.475294213	-1.442937532	-0.091659
C	 0.618281715	 0.2587502531	-2.6848683682	-0.329964
C	 1.9474093197	-0.7740850064	-0.7447960042	-0.04916
C	 3.1527010558	 0.1344819643	-1.0062032525	-0.405359
C	 1.2033869113	-0.5034817471	 0.548825541	 0.399152
N	 1.5531781093	-0.6644063078	 1.7517931574	-0.247701
O	 0.5298823195	-0.2583547003	 2.6346588338	-0.395737
H	 0.6203520608	 2.1126457948	-0.2102024303	 0.119147
H	-1.0382550653	 1.8411381419	-0.7779165579	 0.118041
H	-0.6556307015	 1.7098593434	 0.9490287731	 0.141126
H	-0.9339504317	-0.5398967906	 0.003131996	 0.094737
H	 1.0351654104	 1.2799221482	-2.6483408753	 0.096528
H	 1.1644569884	-0.2960094632	-3.455760522	 0.121402
H	-0.421984137	 0.3366012414	-3.0195285181	 0.121866
H	 2.254136526	-1.8199663931	-0.8835551676	 0.090946
H	 2.9178823632	 1.1884163394	-0.8319323568	 0.120767
H	 3.9694723293	-0.1454107339	-0.334239139	 0.132684
H	 3.5085102758	 0.0250752472	-2.0357958327	 0.118641
H	 0.9216976172	-0.4400933973	 3.4954776551	 0.306619
