22
gdb 84989	2.32573	1.46349	1.19688	2.967	82.88	-0.2509	0.0354	0.2863	1182.6218	0.193855	-404.390442	-404.380828	-404.379884	-404.424533	36.68	
C	 0.5028431935	 1.4516788361	 0.1853573357	-0.400557
C	-0.0866164678	 0.0757702452	-0.100569226	 0.114988
C	 0.5419540065	-0.6830480269	-1.2890076557	-0.286964
C	 1.4686612935	-1.7451876348	-0.6498903956	 0.199564
C	 1.3613695161	-3.1164462051	-1.3307232549	-0.424848
C	 2.9446432288	-1.2968232671	-0.6216335446	-0.42656
C	 0.9483197141	-1.8143765901	 0.782200606	 0.387266
N	 1.2716188311	-2.7054496375	 1.6178356429	-0.544195
O	 0.1043846971	-0.7803062121	 1.0483658392	-0.251979
H	 1.5893226384	 1.4046707424	 0.30383001	 0.128572
H	 0.2767838567	 2.1356540403	-0.639188832	 0.119792
H	 0.0755033602	 1.8656177856	 1.1028202253	 0.130471
H	-1.1700386836	 0.1729265617	-0.2266954877	 0.089992
H	-0.2405838605	-1.1711481406	-1.8765873114	 0.107079
H	 1.0814165896	-0.008664308	-1.958779087	 0.106357
H	 1.7444684234	-3.0673484636	-2.3557566597	 0.10723
H	 1.9382929192	-3.8583436551	-0.7736146673	 0.143006
H	 0.3228387311	-3.4594654732	-1.369346604	 0.113108
H	 3.068847135	-0.3244923082	-0.1355878033	 0.117548
H	 3.5465702679	-2.0247895653	-0.0717662125	 0.140625
H	 3.3353413949	-1.2171028818	-1.6417436369	 0.111914
H	 0.8187778748	-2.539988182	 2.5179306294	 0.217592
