19
gdb 113422	2.95535	1.07996	0.92014	2.3266	77.18	-0.2421	-0.0213	0.2208	1312.456	0.156476	-423.00328	-422.994176	-422.993232	-423.037981	33.555	
C	-0.3012619338	 1.1195156512	-0.1499550661	-0.238944
O	 0.497285648	-0.0179334523	 0.1164833105	-0.230737
C	 0.9496197611	-0.6436376414	-1.0406940506	 0.069867
C	 1.4946859827	-2.0304525167	-0.8851320869	-0.39451
C	 0.1833612222	-1.8144237896	-1.5964387664	 0.308245
C	-1.201947973	-2.2735639269	-1.1109959611	-0.413388
C	-1.5879925248	-2.4312686013	-2.5955084436	 0.406679
O	-2.6047753124	-2.7033036929	-3.1620927475	-0.285353
C	-0.1622308463	-2.0787948929	-3.07267973	-0.428526
H	 0.2654171578	 1.887497942	-0.6977842822	 0.110521
H	-1.1961873566	 0.8683054318	-0.7367308269	 0.109363
H	-0.6098453162	 1.528668378	 0.8145621507	 0.131798
H	 1.4390346327	 0.0243568616	-1.7534225336	 0.083447
H	 2.3697190249	-2.3073701488	-1.4643446009	 0.11727
H	 1.4517976574	-2.4568205872	 0.1120483255	 0.128555
H	-1.2166253692	-3.2249119148	-0.5673927327	 0.13194
H	-1.7962595666	-1.5492540709	-0.5463402482	 0.135406
H	-0.1018987168	-1.2287800671	-3.7604229223	 0.127463
H	 0.350855769	-2.9322075418	-3.5307119679	 0.130905
