19
gdb 73485	2.49842	2.26862	1.59606	1.8435	73.79	-0.2244	0.0929	0.3173	903.2783	0.161409	-423.011781	-423.004945	-423.004001	-423.042498	28.767	
C	 0.0759511877	 1.5050311139	-0.0743909958	-0.482817
C	-0.0164335415	-0.0003297623	-0.0164895026	 0.464319
O	 0.6366756015	-0.5542650123	-1.1456549357	-0.320417
C	 0.0795162082	-1.8590260095	-1.3611235974	-0.080621
C	-0.7006796396	-2.1027399095	-0.0764042472	 0.053648
O	 0.3049601668	-2.1098873914	 0.9695085054	-0.284901
C	 0.2809550003	-0.7273070896	 1.3569258758	 0.027564
C	-1.2082430376	-0.5263240334	 1.7209097046	-0.262405
C	-1.3813876766	-0.7351988087	 0.1980821361	-0.1406
H	 1.1267339616	 1.8067815971	-0.1254807668	 0.13352
H	-0.426035085	 1.8831382567	-0.9699255456	 0.126346
H	-0.3703376239	 1.9777919248	 0.8034996887	 0.120114
H	-0.5538795592	-1.8626115841	-2.2614298663	 0.086434
H	 0.8872605499	-2.5864700608	-1.4840463706	 0.114614
H	-1.309242759	-3.0071177265	-0.0356976267	 0.080471
H	 1.1198777662	-0.5025096901	 2.0143136953	 0.078773
H	-1.6333371658	-1.2702925201	 2.39628504	 0.10659
H	-1.468293704	 0.4828405322	 2.0421499596	 0.10573
H	-2.28608023	-0.4949564764	-0.3593405109	 0.073636
