23
gdb 122818	6.84921	0.46181	0.44052	3.7259	84.08	-0.2414	-0.0066	0.2347	2502.1083	0.202086	-425.445507	-425.433839	-425.432895	-425.484502	39.872	
C	-0.0368924338	 1.6097687147	 0.0235739995	-0.379939
C	-0.0147746499	 0.0796478841	 0.0679498164	-0.16372
C	-1.4096681521	-0.5475399902	-0.0311291438	-0.16658
C	-1.3876767189	-2.0782851568	 0.0095939525	-0.170207
C	-2.781135748	-2.7008254521	-0.0863759296	-0.317196
C	-2.7673895251	-4.2245914988	-0.1316696199	 0.373214
O	-1.7711345125	-4.8656163959	-0.3539349819	-0.279239
C	-4.1199873947	-4.887082983	 0.1236232735	-0.168721
O	-4.0286179918	-6.2677125741	-0.1064699344	-0.39428
H	 0.9723715731	 2.0268356333	 0.0964263942	 0.111824
H	-0.4800386301	 1.9727397813	-0.910629347	 0.1126
H	-0.6274535468	 2.0218265354	 0.8496413145	 0.111923
H	 0.6109159834	-0.3030970618	-0.7489478772	 0.097785
H	 0.4654755327	-0.2540419409	 0.9972408808	 0.09589
H	-2.037195193	-0.1649799085	 0.7866889255	 0.088039
H	-1.8918776626	-0.2128231432	-0.9608200566	 0.089641
H	-0.7708248782	-2.4699866868	-0.8061703675	 0.118315
H	-0.9055661097	-2.4188175205	 0.9342982271	 0.103939
H	-3.4239378458	-2.3702610235	 0.7413262073	 0.109107
H	-3.2908180677	-2.3563923183	-0.9991777758	 0.124295
H	-4.4032041577	-4.6466561941	 1.164308398	 0.107837
H	-4.868493796	-4.3932084646	-0.5206439807	 0.103152
H	-4.8841345748	-6.6599453557	 0.0901970552	 0.292321
