20
gdb 56156	3.57453	0.84663	0.78476	1.6116	77.39	-0.2622	0.0315	0.2936	1541.0031	0.168226	-440.279565	-440.269438	-440.268493	-440.3157	36.006	
C	-0.2619586902	 1.3929374924	-0.0965830556	-0.461379
C	 0.0899690782	-0.0623037722	 0.077391247	 0.40409
N	 0.4615336974	-0.672747922	 1.1271262839	-0.521112
O	-0.0417245415	-0.713350588	-1.0971853685	-0.244177
C	 0.2453376384	-2.11706802	-1.0881219798	-0.112165
C	 0.0725926471	-2.6340973324	-2.4953829089	 0.406084
C	 0.8674539115	-1.9388891828	-3.5773422758	-0.464138
C	-0.342989783	-4.0348362256	-2.6588003022	-0.232472
O	-1.277905844	-2.9728867162	-2.8480812091	-0.270116
H	-0.1534636195	 1.9367486248	 0.8429912363	 0.126588
H	 0.3843185037	 1.8496634101	-0.8523249708	 0.145277
H	-1.2924445633	 1.4900815752	-0.4514057816	 0.150707
H	 0.5066512077	-0.0319505211	 1.9158736983	 0.219808
H	 1.268984471	-2.2754386383	-0.7298383766	 0.119522
H	-0.4351465346	-2.6271676284	-0.4007688426	 0.12288
H	 1.9424400445	-2.023124287	-3.3838399404	 0.119775
H	 0.6507740475	-2.3816973648	-4.5520655859	 0.125701
H	 0.6125678237	-0.87655834	-3.6100877648	 0.140174
H	-0.0508283448	-4.5729245929	-3.5598957941	 0.111763
H	-0.5153155796	-4.6612662408	-1.7838497186	 0.113189
