18
gdb 47549	2.73162	1.51676	1.05946	4.4104	71.96	-0.2577	0.0099	0.2676	1111.8301	0.149845	-439.090991	-439.083249	-439.082305	-439.123666	29.649	
O	-0.0050035164	-0.0400309593	 0.5403746523	-0.303938
C	-0.0549202013	 1.0644088225	 0.070486782	 0.384823
C	-1.3688254689	 1.8312662229	-0.055312798	-0.326404
C	-1.7090208577	 2.3260383097	-1.4464718058	-0.038966
N	-2.1925915215	 3.7198650351	-1.5351256256	-0.340321
C	-0.8672879714	 3.3725527235	-2.0711371763	-0.013609
C	 0.3549794665	 3.8552283761	-1.3183097699	-0.246428
C	 1.3859336089	 2.7379663201	-1.1708776843	-0.048013
O	 1.1198069404	 1.6791513337	-0.2344191209	-0.237535
H	-2.1434952472	 1.1622663957	 0.323843041	 0.132473
H	-1.3227740988	 2.6936220966	 0.616839129	 0.139487
H	-2.1650015388	 1.5905512206	-2.1046271206	 0.098534
H	-2.864238203	 3.8107728997	-2.293139675	 0.235664
H	-0.755605411	 3.3319540013	-3.1531942918	 0.090229
H	 0.8382673618	 4.6775699056	-1.8596575616	 0.109538
H	 0.069033663	 4.2526079026	-0.3408975653	 0.126724
H	 1.5664421318	 2.2727150956	-2.1493333212	 0.113054
H	 2.3371336434	 3.1509332282	-0.8247930782	 0.12469
