16
gdb 8195	2.77512	2.30247	1.6499	2.0083	60.47	-0.2196	0.0523	0.2719	823.2167	0.128249	-420.818264	-420.810382	-420.809438	-420.849703	30.347	
C	-0.0586529502	 1.5327690709	-0.002656292	-0.466917
C	 0.0727780852	 0.0341861752	 0.0968670305	 0.279688
O	-1.0763834826	-0.6982338319	-0.2767088296	-0.477896
C	 1.361914673	-0.7259669382	-0.1797839547	-0.075127
O	 2.4854118002	 0.0218482283	 0.2986201124	-0.284487
C	 2.0100395108	-0.0824475472	 1.6726997436	-0.145032
C	 0.7323003658	-0.7518274858	 1.2104152506	 0.320219
O	 0.0794477813	-1.6915055618	 1.9663305526	-0.459135
H	 0.8969664466	 2.0144019589	 0.215823223	 0.143513
H	-0.3478123915	 1.8212356702	-1.0207702035	 0.108847
H	-0.820278243	 1.9119503118	 0.6858219778	 0.124802
H	-1.172635037	-0.6578857145	-1.2343632119	 0.292655
H	 1.5115461644	-1.4418672058	-0.9811850725	 0.105809
H	 2.6504531088	-0.7563642702	 2.2521556383	 0.123465
H	 1.9389374931	 0.8908544489	 2.170509539	 0.108651
H	-0.770022335	-1.8468405389	 1.5311254063	 0.300945
