21
gdb 113466	3.8335	1.02631	0.99272	0.9913	84.14	-0.2342	0.093	0.3272	1317.6354	0.181909	-387.028795	-387.020082	-387.019138	-387.062259	33.511	
C	 0.2990750608	 1.2145639561	 0.3011746065	-0.22823
O	-0.3795951958	 0.20324376	-0.4153870918	-0.240733
C	 0.417331474	-0.4156604141	-1.3750292371	 0.058825
C	 1.356230865	-1.5294908647	-0.9506198929	-0.409506
C	 0.0852185984	-1.8322874926	-1.7002898297	 0.349395
C	-1.1000209591	-2.6601063318	-1.1608780279	-0.308027
C	-1.2305090909	-3.2985973892	-2.5549726623	-0.038478
C	-1.4289129826	-2.2428137762	-3.6062121586	-0.277777
C	-0.042342567	-2.4775729807	-3.0673349621	-0.140045
H	 1.1726821892	 0.8165567861	 0.8373071501	 0.107582
H	 0.641262409	 2.0221742012	-0.3639080837	 0.104347
H	-0.4081705048	 1.6284416863	 1.0240557578	 0.124862
H	 0.7455844077	 0.2422873246	-2.1831198229	 0.078626
H	 2.3064324936	-1.6317066805	-1.4663884561	 0.108474
H	 1.3804531215	-1.7808719049	 0.105601687	 0.114238
H	-0.7909526417	-3.3716754634	-0.3908026715	 0.102361
H	-1.9654701754	-2.0967036918	-0.7995485721	 0.108435
H	-1.4606535486	-4.3398356739	-2.7432501742	 0.084529
H	-1.6063148956	-2.6153693778	-4.6104177476	 0.106913
H	-1.9569108709	-1.3216719085	-3.369896185	 0.11157
H	 0.7843682733	-2.7857316341	-3.6966526661	 0.082638
