22
gdb 86620	2.57887	1.28767	1.15271	2.0986	81.45	-0.2391	0.0768	0.3158	1214.3048	0.194443	-404.311281	-404.30195	-404.301006	-404.345618	35.095	
C	 0.3794543786	 1.4060649731	-0.3758947649	-0.408436
C	 0.1228985582	-0.0299861456	 0.0336761508	 0.157067
O	 0.8693061802	-0.9815314825	-0.7726079229	-0.318692
C	 1.3584550416	-1.6739233278	 0.3982045084	 0.1027
C	 2.8570476398	-1.8573478182	 0.3633827939	-0.008546
C	 3.5233028202	-2.2149676023	-0.9108679568	-0.248341
N	 3.705502859	-0.8726236696	-0.320907291	-0.321905
C	 0.7296694308	-0.6088180153	 1.3441349256	-0.080142
C	 1.6688583828	 0.2629323844	 2.1702856407	-0.416374
H	 1.4334362464	 1.6788109111	-0.2749274859	 0.123658
H	 0.0877330202	 1.5493804079	-1.4211806351	 0.128802
H	-0.2150983968	 2.0916403088	 0.2375210449	 0.119369
H	-0.9517525534	-0.2447083472	-0.0497395822	 0.076334
H	 0.8788513593	-2.6589417093	 0.4978158544	 0.076826
H	 3.2756387204	-2.2402748516	 1.2928395748	 0.090477
H	 4.4063587379	-2.8472945999	-0.9059036269	 0.114386
H	 2.8986025719	-2.2962424784	-1.7959069088	 0.125664
H	 3.0835027272	-0.2423145544	-0.8259843119	 0.234588
H	-0.0362949555	-1.0337374278	 1.998212094	 0.075158
H	 2.5031545737	 0.6543715006	 1.583699792	 0.143845
H	 1.1286031327	 1.1091780483	 2.6076021039	 0.114204
H	 2.0957404449	-0.3143285943	 2.9970328629	 0.119356
