19
gdb 85176	2.28771	1.61776	1.12798	2.3541	75.94	-0.2468	0.0186	0.2654	1126.0199	0.160069	-419.182326	-419.173712	-419.172768	-419.215906	32.144	
C	-0.1551256856	 1.5519546544	-0.042768162	-0.411166
C	 0.1235432075	 0.0664802079	-0.0302901168	 0.124375
O	 1.39152347	-0.2647530152	-0.7093398085	-0.266088
C	 1.9055537	-0.8365296252	 0.4262105123	 0.422949
N	 3.0362479054	-1.3374401116	 0.6512220772	-0.548313
C	 0.6652573117	-0.6056424992	 1.2678523638	-0.18503
C	 0.8097582004	 0.2158063881	 2.5287249799	-0.014252
C	 1.8792957758	-0.0825866682	 3.5121536954	-0.247768
N	 1.9145310947	 1.1678089565	 2.7284421734	-0.321657
H	 0.6331636212	 2.1141167367	 0.4630815883	 0.14935
H	-0.2398819938	 1.908911892	-1.0733456004	 0.132327
H	-1.1029099102	 1.7575354127	 0.4659554666	 0.127702
H	-0.6854066548	-0.4935974819	-0.5088103441	 0.095768
H	 3.6317927943	-1.3002693335	-0.1783348713	 0.229774
H	 0.1432959822	-1.5402391505	 1.4964481735	 0.11363
H	-0.1401593014	 0.5857823477	 2.9116068137	 0.096177
H	 1.6854783809	 0.0441707312	 4.5733539388	 0.116345
H	 2.5930719327	-0.8584084102	 3.2514261489	 0.147993
H	 2.604391399	 1.0531162981	 1.9879854311	 0.237886
