20
gdb 110278	2.01257	1.62734	1.21835	3.7465	80.13	-0.2264	0.0208	0.2472	1144.8952	0.170296	-403.146245	-403.137052	-403.136108	-403.180482	33.981	
C	 0.3574640821	 1.5420232856	-0.0910005659	-0.381863
C	-0.0776934652	 0.0967269364	 0.1682770865	-0.159311
N	 0.6793800737	-0.6051590626	 1.1835302706	-0.080332
C	 2.1152900467	-0.80064378	 1.3943370566	-0.036945
C	 2.6529628168	 0.0064351838	 2.548492123	-0.015526
C	 2.2313899792	 1.4026416162	 2.9460392694	-0.422686
C	 1.8231701327	-1.2497539325	 2.816785699	-0.253796
C	 0.3489971835	-0.9794007766	 2.4761218274	 0.401522
O	-0.7064003046	-1.0361378226	 3.0502623739	-0.376304
H	 1.4161597504	 1.594161014	-0.3650509172	 0.12216
H	-0.2223380325	 1.960802489	-0.9195658724	 0.120046
H	 0.200642422	 2.1727945677	 0.7874031968	 0.129592
H	-1.1190196225	 0.0618186152	 0.5043342913	 0.139549
H	-0.0271046248	-0.4714769211	-0.7702550376	 0.108475
H	 2.7219080667	-1.3027621215	 0.6506775393	 0.108952
H	 3.7136080711	-0.1889714723	 2.7110267591	 0.097043
H	 1.1532577817	 1.545990363	 2.8507545661	 0.140373
H	 2.4958432907	 1.590456194	 3.9916266397	 0.126215
H	 2.734453362	 2.1561485813	 2.33083632	 0.119038
H	 2.2032449202	-2.1109402368	 3.3472862546	 0.113798
