22
gdb 70244	2.9503	1.29436	1.20022	2.7507	81.52	-0.2274	0.0619	0.2893	1176.3156	0.194304	-404.352964	-404.343959	-404.343015	-404.385661	36.267	
C	-0.029997102	 1.5189294577	 0.0069254192	-0.471187
C	-0.0136078522	 0.0123732265	 0.0604713402	 0.341102
C	-1.2596832692	-0.7520037792	-0.3768215719	-0.286616
C	-1.098632804	-2.1937166307	 0.1599981135	 0.336704
C	-2.4236182734	-2.8809173067	 0.4859671976	-0.434737
O	-0.4323945372	-2.9214642837	-0.8913847204	-0.457434
C	-0.1593857824	-2.0435443271	 1.3892816447	-0.268691
C	 0.6575846733	-0.7921194172	 1.1229298043	-0.059223
N	 1.279778937	-0.6402974307	-0.2021599935	-0.383586
H	 0.9145228741	 1.92309381	 0.3792308835	 0.127068
H	-0.1611756565	 1.8728146832	-1.0224436449	 0.116717
H	-0.8493989966	 1.9294506899	 0.6083034899	 0.10698
H	-2.149126843	-0.2833289835	 0.0610780812	 0.094742
H	-1.3972854673	-0.7687040102	-1.4631377976	 0.11204
H	-3.0402674448	-2.9627736897	-0.4138676545	 0.125835
H	-2.2518209755	-3.8931168137	 0.8721858685	 0.104846
H	-2.9837283153	-2.3264928145	 1.2451238569	 0.116677
H	-0.2400969651	-3.8057169631	-0.5596823668	 0.276114
H	-0.7465971801	-1.9121378336	 2.306666091	 0.099425
H	 0.4525178892	-2.9441839667	 1.527714912	 0.088624
H	 1.2017350536	-0.3365641991	 1.9465368115	 0.079213
H	 1.1447362572	-1.4871588278	-0.7512042543	 0.235387
