17
gdb 52011	2.68977	0.8088	0.64825	2.2763	81.66	-0.2533	-0.0261	0.2272	1651.4452	0.131315	-384.625335	-384.615172	-384.614228	-384.661596	35.663	
O	-0.1201318351	-0.0703419132	-0.0973459295	-0.23602
C	-0.0109876794	 1.127948101	-0.0811700204	 0.157469
C	 1.2994985206	 1.8810282491	-0.106549925	-0.28629
C	 1.3453837973	 2.8992960948	-1.2542350717	-0.199192
C	 2.6131606256	 3.8020231467	-1.2102290133	-0.349491
C	 2.671301966	 4.6640725632	-2.3946464042	 0.316578
C	 2.6971116649	 5.3472656163	-3.3817133781	-0.424039
C	 2.6752344475	 4.5881183402	 0.0267431081	 0.347064
C	 2.7087678747	 5.2141083244	 1.0513999771	-0.463891
H	-0.9124177808	 1.7847772086	-0.0434057922	 0.0738
H	 1.3901732806	 2.4200971067	 0.8470710546	 0.13794
H	 2.1176882408	 1.1574890517	-0.1712400213	 0.122212
H	 1.3375929712	 2.384151724	-2.2196913968	 0.12788
H	 0.4624847576	 3.5466414022	-1.2257236892	 0.125781
H	 3.4900090846	 3.1379219303	-1.2314826872	 0.142016
H	 2.7301495164	 5.9597716435	-4.2487531532	 0.202175
H	 2.7512351075	 5.7790683305	 1.9499135022	 0.206005
