18
gdb 24330	3.50707	1.53334	1.08085	1.8371	83.32	-0.1951	0.0416	0.2367	1087.6529	0.151545	-364.868499	-364.861342	-364.860398	-364.900115	28.918	
C	 0.004555193	 1.5005622399	-0.1282014716	-0.395807
C	 1.3754399241	 2.0788827055	 0.1144300984	-0.045116
C	 2.4732636331	 1.3679450809	 0.3681195506	-0.045117
C	 2.5315784199	-0.1359080171	 0.4557244241	-0.395807
C	 1.1864484456	-0.7588975763	 0.2227826958	 0.217999
C	 0.8247031205	-2.0877298427	 0.2208794197	-0.198252
N	-0.5205998677	-2.1527904264	-0.0410269379	-0.241281
C	-1.0271774475	-0.888476438	-0.2070330754	-0.198253
C	 0.0113268673	 0.0020972858	-0.0487764848	 0.217998
H	-0.7007084749	 1.9324841201	 0.5982542413	 0.111296
H	-0.3609752657	 1.8435838947	-1.1082416789	 0.111343
H	 1.4454318899	 3.1635056591	 0.0732635543	 0.077842
H	 3.4149603334	 1.8880623733	 0.5283870093	 0.077842
H	 3.2715960229	-0.5088278385	-0.2688868978	 0.111345
H	 2.9359766358	-0.4225897583	 1.4385596318	 0.111294
H	 1.4039652592	-2.983272957	 0.3820039167	 0.112302
H	-1.0554884735	-3.0005978305	-0.1022278325	 0.25807
H	-2.0726654054	-0.7318543645	-0.421340673	 0.112302
