21
gdb 100824	2.4576	0.89214	0.79474	3.0175	76.23	-0.27	0.006	0.276	1531.7742	0.179255	-461.38648	-461.375491	-461.374547	-461.42349	38.383	
C	-0.0746053096	 1.4840605273	 0.0409644134	-0.427012
C	 0.0452137038	-0.0444187418	-0.0171606813	 0.014833
C	 0.7251985786	-0.5058407959	-1.3210081303	-0.077158
O	 0.0161424439	-0.0897076862	-2.4789786106	-0.422916
C	 0.7454407875	-0.5925680025	 1.2373402209	 0.101123
C	 0.7728940798	-2.1139624672	 1.35802052	-0.406014
O	 2.1084915882	-0.1032807911	 1.2404155473	-0.193682
C	 2.6113290924	 0.3901590858	 2.3847683544	 0.171267
O	 3.7366107872	 0.7778748367	 2.4862131752	-0.277635
H	 0.9117957985	 1.9592792715	 0.0249472832	 0.132986
H	-0.6535795427	 1.8567634128	-0.8081183779	 0.118152
H	-0.5890287207	 1.8085701371	 0.9517161948	 0.114761
H	-0.9677116004	-0.4683607078	-0.0140874537	 0.086573
H	 1.7666179932	-0.1568606392	-1.3380184713	 0.113052
H	 0.7451947233	-1.5984154788	-1.3690171251	 0.108684
H	 0.2186524932	 0.8365523838	-2.6370506708	 0.287323
H	 0.2341767466	-0.175037994	 2.1165188096	 0.085636
H	 1.3911309137	-2.5638392763	 0.5777825896	 0.143471
H	 1.1876637946	-2.4112678623	 2.3256882694	 0.124555
H	-0.2396028137	-2.5215843523	 1.2804557564	 0.126889
H	 1.8700539326	 0.4024524403	 3.2089109267	 0.075115
