14
gdb 127950	3.96834	1.21104	0.93335	4.8524	70.4	-0.2612	-0.0852	0.176	1175.8947	0.101553	-466.180909	-466.172791	-466.171847	-466.214358	28.687	
C	-0.0679437479	 1.44265772	 0.1048781301	-0.348011
N	-0.0279461843	-0.0083608616	 0.0569753773	-0.322681
C	 0.5318260376	-0.578766511	-0.9237151617	 0.538802
N	 1.1486980306	 0.0215981087	-2.0232444646	-0.311256
N	 1.7411004209	-0.6098469072	-3.0628466652	-0.004794
N	 1.7794525597	-1.8642012981	-3.1123455629	-0.238438
C	 1.1918157809	-2.6568130845	-2.0603033878	 0.488398
O	 1.2261047677	-3.8577290482	-2.1030773627	-0.336295
N	 0.6010075921	-1.957621437	-1.02476016	-0.422585
H	 0.9358257428	 1.8937647926	 0.1380711625	 0.120257
H	-0.6088249738	 1.8812617372	-0.7479843908	 0.119807
H	-0.5908531505	 1.7522083303	 1.012010136	 0.143898
H	 1.1821871008	 1.02513015	-2.0973259183	 0.290093
H	 0.1809869335	-2.4899828711	-0.274220822	 0.282806
