14
gdb 75862	3.50284	1.2577	0.95407	2.7934	75.36	-0.2192	-0.0407	0.1785	1146.6507	0.099969	-436.690054	-436.681746	-436.680802	-436.723018	30.858	
O	 0.0462979945	 1.4053064014	-0.1566139593	-0.417108
C	-0.0243316635	 0.0047338545	-0.0454441739	-0.112426
C	 0.5967791187	-0.4740450157	 1.2847673108	 0.409739
O	 1.6581130066	-0.1234223766	 1.7434478814	-0.370032
N	-0.3265266066	-1.3273459421	 1.8537385331	-0.332305
C	-1.524352458	-1.3129906158	 1.1284774656	-0.11775
C	-1.4403920537	-0.541757066	 0.0261750995	 0.10854
C	-2.4303257093	-0.325453496	-0.948582906	 0.246174
C	-3.2543956673	-0.1173022904	-1.8033590327	-0.431264
H	 0.9117278425	 1.6586112121	 0.1928182174	 0.297303
H	 0.5166210664	-0.4902135334	-0.8713380716	 0.11054
H	-0.2234181911	-1.6968151317	 2.7857072619	 0.26999
H	-2.3633054239	-1.901186167	 1.4702837136	 0.145925
H	-3.9857076854	 0.0685083766	-2.5500858497	 0.192673
