20
gdb 115734	2.8235	1.24627	1.00905	2.9557	75.57	-0.2355	0.0655	0.301	1249.6044	0.170591	-440.218072	-440.208904	-440.20796	-440.253074	32.753	
C	 0.2467251136	 1.3260658208	 0.2071092308	-0.23948
O	-0.2918478456	 0.1184319885	-0.2864484528	-0.229904
C	 0.5230299691	-0.5085284186	-1.2336178786	 0.075253
C	 1.6840394843	-1.3736845747	-0.6891625189	-0.106562
O	 1.0388935158	-2.5878937453	-1.1350454919	-0.294375
C	-0.059306729	-1.8554447548	-1.732089022	 0.054762
C	-1.4064382317	-2.297705856	-1.2169178696	 0.013184
C	-1.6251809718	-3.7405147812	-0.9478082806	-0.248524
N	-1.561419785	-2.768090514	 0.1594455512	-0.311439
H	 1.2006058403	 1.1695575667	 0.7330365455	 0.108987
H	 0.4142590786	 2.0535244326	-0.6023646788	 0.108209
H	-0.4786464244	 1.7375070625	 0.9120001575	 0.137475
H	 0.8100786439	 0.1948286514	-2.0281461395	 0.071333
H	 2.658259503	-1.2327039388	-1.17189543	 0.10437
H	 1.8029401041	-1.3455432112	 0.4004127216	 0.109004
H	-0.0375377962	-1.9453416219	-2.8274415592	 0.082302
H	-2.2335474529	-1.6936897654	-1.5839325843	 0.095607
H	-2.6016462879	-4.1846739001	-1.1182564908	 0.113392
H	-0.7796184605	-4.4074379824	-1.0901915826	 0.123824
H	-0.6358580178	-2.827143088	 0.5799698931	 0.232583
