16
gdb 133668	2.63509	1.21779	1.01719	2.0144	57.56	-0.2844	0.0709	0.3554	1168.5627	0.11955	-569.379145	-569.370214	-569.36927	-569.413648	32.309	
O	 0.1167996443	 1.5621034845	 0.0782006305	-0.423976
C	 0.0618504521	 0.1567828751	-0.0631968393	-0.039637
C	 0.7025283883	-0.3489098445	-1.3347091553	 0.000117
C	 0.1764851884	-1.5918548592	-2.0078260652	-0.258768
C	-0.0535778027	-0.2415531676	-2.6329822102	-0.283493
C	 0.6920440146	-0.4936166814	 1.1736036543	 0.269874
F	 0.0707022517	-0.1278454256	 2.2974578753	-0.067522
F	 0.6614075482	-1.8306834379	 1.1047957218	-0.072093
F	 1.9841854006	-0.1185898443	 1.2856147995	-0.101852
H	 1.045984004	 1.8199986321	 0.0814441416	 0.288781
H	-1.0015350391	-0.1056513465	-0.0502035395	 0.112385
H	 1.7776278697	-0.1930331464	-1.3763275172	 0.092529
H	 0.8945553724	-2.2626640084	-2.4649487315	 0.120335
H	-0.6681613322	-2.0952087991	-1.5502184316	 0.120919
H	-1.0543013422	 0.1757884759	-2.598171943	 0.123558
H	 0.5040415719	 0.0180786633	-3.5254644002	 0.118843
