15
gdb 33483	2.22138	1.77106	1.19014	3.1695	75.62	-0.2443	-0.0093	0.235	1037.5894	0.111736	-379.585715	-379.577707	-379.576763	-379.618177	30.555	
C	-0.0218982866	-1.2408356632	-0.0896962352	-0.411326
C	-0.005719531	-0.0419657877	-0.027872078	 0.322946
C	 0.0512879846	 1.4129933539	 0.0463716231	-0.032894
N	-0.1502432555	 1.9975224132	 1.4357386859	-0.352322
C	 1.1005730235	 2.7795741152	 1.2802957355	-0.003342
C	 2.2344515469	 1.8102265943	 1.2190385485	-0.285299
C	 1.4413867121	 2.1015447951	-0.0317796434	-0.103645
C	-0.8707152865	 2.0192606692	-0.9230130066	 0.252516
N	-1.5990400175	 2.5253586003	-1.6644138044	-0.335857
H	-0.045768011	-2.3016974536	-0.1426472965	 0.208881
H	-0.9761650646	 2.5886296109	 1.4399937193	 0.244643
H	 1.1747847622	 3.8133862892	 1.5909322058	 0.11224
H	 3.2295405268	 2.2429490794	 1.209650518	 0.126016
H	 2.1450868429	 0.8522689628	 1.7218719563	 0.134956
H	 1.8737314936	 2.464212011	-0.9535697283	 0.122487
