19
gdb 71840	2.37972	1.85102	1.53388	1.6472	80.29	-0.2169	0.0054	0.2223	987.7528	0.158762	-385.861063	-385.853065	-385.852121	-385.892959	31.888	
C	-0.0189446608	 1.4681212107	-0.0357245463	-0.498168
C	-0.0710995227	-0.0235239842	-0.0332890257	 0.435585
O	 0.7896981339	-0.7161106166	-0.9073025652	-0.33792
C	-0.0654110202	-1.9324648582	-0.7537735387	 0.003202
C	 0.5991637897	-2.7547173073	 0.315237835	-0.114524
C	 0.4683603803	-2.0864534973	 1.4726569964	-0.057263
C	-0.3767851249	-0.8908991757	 1.2668315581	-0.226306
C	-1.14245416	-1.0585910489	-0.0340426231	 0.197657
C	-2.6285181813	-1.0502905577	-0.2214522419	-0.520812
H	 0.978751456	 1.8136519217	 0.2557426149	 0.13734
H	-0.2386175478	 1.8673969871	-1.0313712462	 0.129618
H	-0.7424506735	 1.8808040343	 0.6730889196	 0.122634
H	-0.2715852384	-2.3766192973	-1.7270629909	 0.077442
H	 1.2317642239	-3.610866521	 0.122470554	 0.098882
H	 0.9675843388	-2.317030411	 2.4062147242	 0.10028
H	-0.8376307562	-0.3536131805	 2.0883022026	 0.078869
H	-3.0849882859	-0.2314471343	 0.3443701897	 0.122592
H	-2.9013857971	-0.9201049131	-1.2747058098	 0.123364
H	-3.0779495338	-1.9859224907	 0.1311421533	 0.127527
