19
gdb 69932	3.32485	1.5038	1.31291	1.124	79.18	-0.2304	0.0247	0.255	1019.9421	0.160778	-385.864457	-385.857089	-385.856145	-385.895808	30.415	
O	-0.1152429397	 1.4552866442	 0.061736011	-0.465954
C	-0.018715101	 0.0747553642	 0.0330539781	 0.391213
C	-0.2844718553	-0.735419408	-1.2000045618	-0.357678
C	-1.1598432817	-0.9321328507	 0.0226726467	-0.125009
C	-0.4581162243	-1.7844697862	 1.0970280266	-0.012703
C	 0.1573002591	-3.1551767436	 0.7247364072	-0.285286
C	 1.6287242534	-2.8418786974	 0.5346665833	-0.06276
C	 1.9344178226	-1.5603118691	 0.757621058	-0.087911
C	 0.7233349743	-0.7536538566	 1.1218865256	-0.125662
H	 0.5601981037	 1.8186636667	-0.5211895354	 0.284362
H	-0.771155698	-0.1728814668	-1.9909241637	 0.109763
H	 0.4023764842	-1.5034852838	-1.5441158076	 0.111992
H	-2.2267039189	-0.7501335719	-0.0273861723	 0.088793
H	-1.0301353752	-1.8178895091	 2.0253033279	 0.074078
H	 0.0073376184	-3.9055263096	 1.51118744	 0.102371
H	-0.2883397935	-3.575999983	-0.1866655441	 0.106568
H	 2.3433115165	-3.6048591332	 0.2406921914	 0.089118
H	 2.9310679676	-1.1401377461	 0.669152137	 0.087221
H	 0.8169570679	-0.1735051301	 2.044244592	 0.077484
