17
gdb 88309	4.31469	0.85174	0.80317	4.7066	75.89	-0.2475	-0.0483	0.1992	1432.6899	0.134112	-418.000818	-417.991536	-417.990592	-418.035882	32.719	
C	-0.7189986126	 1.135783847	 0.1917944957	-0.330558
N	 0.0086994304	-0.1307862732	 0.1256055699	-0.076534
C	 1.3127488032	-0.1508786666	-0.4807292953	-0.233436
C	 1.1733302364	-0.3748064913	 1.0010053364	-0.110962
C	 1.7051849931	 0.6755189699	 1.9217523564	 0.389943
O	 1.8236912135	 1.8413201522	 1.6286561061	-0.295802
C	 2.0823422231	 0.1439833703	 3.3191268765	-0.471675
C	 2.6467048012	 1.1574967919	 4.1997421617	 0.288419
N	 3.0971783375	 1.9446402765	 4.9138661526	-0.292856
H	-0.0830794363	 2.0156279803	 0.3374607919	 0.150636
H	-1.2714003519	 1.2421133769	-0.7463912536	 0.131841
H	-1.4453751754	 1.0828379674	 1.0082551581	 0.126299
H	 1.5396696704	-1.0038648675	-1.1151387705	 0.127763
H	 1.7644870377	 0.7960019729	-0.7716136495	 0.140772
H	 1.2117607316	-1.3908807509	 1.3872349888	 0.098479
H	 1.1870008763	-0.2920053294	 3.780612624	 0.180645
H	 2.7923052818	-0.6848756364	 3.2039606507	 0.177026
