16
gdb 53137	2.93336	1.08372	0.93205	2.5626	79.05	-0.2385	-0.0263	0.2121	1299.1793	0.122566	-400.691756	-400.683066	-400.682122	-400.727067	30.887	
C	 0.0357607257	 1.5161212909	-0.0261469987	-0.501411
C	-0.0034828761	 0.0625679702	 0.0212762258	 0.086719
C	-0.0340608472	-1.1409832526	 0.0712532502	 0.103862
C	-0.0358305454	-2.5782755338	 0.083492238	-0.209581
C	-0.4536947507	-3.413743693	 1.2634820943	-0.182067
N	-1.2530694232	-3.4039270197	-0.0386185661	-0.134895
C	-2.3581366276	-2.6359435046	 0.6456067459	-0.2919
C	-1.599464694	-2.7552547924	 1.9825177044	 0.420097
O	-1.888669069	-2.6097216144	 3.1329661531	-0.300395
H	 1.069107232	 1.8793353398	-0.027332997	 0.157053
H	-0.4522552169	 1.898126093	-0.9293574091	 0.154762
H	-0.4705446252	 1.954403546	 0.8404695956	 0.15831
H	 0.7813516461	-3.0285414999	-0.4769515508	 0.130025
H	 0.1391564712	-4.2566112576	 1.6019794068	 0.123636
H	-2.5472805633	-1.6429457933	 0.2348938825	 0.142563
H	-3.2770650765	-3.2274881986	 0.655525615	 0.143223
