20
gdb 59248	2.82673	1.3342	1.20328	1.4132	79.45	-0.2155	0.01	0.2254	1137.4561	0.171255	-403.122597	-403.11406	-403.113116	-403.155647	33.2	
C	-1.4491370352	 0.5675434666	 0.4068766967	-0.402328
C	-0.0770915774	 0.0838140575	-0.0661681076	 0.103401
O	 0.6464498385	 1.13119106	-0.7206115764	-0.429456
C	 0.7235295118	-0.4862715621	 1.0884611876	-0.020516
C	 0.8883759585	-1.9505839328	 1.3783109976	-0.094461
C	 0.6124279809	-2.9182211849	 0.2802262638	-0.077392
C	 1.4513268955	-2.7120730339	-0.7363325206	-0.084749
C	 2.4035011457	-1.5815006569	-0.4156601145	-0.213929
N	 2.041915174	-1.1213956342	 0.9489004116	-0.128055
H	-1.3472895234	 1.3232600179	 1.1954105092	 0.107054
H	-1.9964423841	 1.0157299015	-0.4263446907	 0.124301
H	-2.0399001447	-0.2608215111	 0.8112744401	 0.119524
H	-0.2132860448	-0.6738173819	-0.8407388627	 0.095755
H	 0.8848787236	 1.785382376	-0.0540197106	 0.279288
H	 0.7007639262	 0.1657745314	 1.9654117518	 0.080355
H	 0.868658555	-2.294291045	 2.4105185598	 0.090216
H	-0.1647854112	-3.670599045	 0.332147346	 0.100378
H	 1.4582060952	-3.2465001813	-1.6794580125	 0.101273
H	 3.4486067023	-1.9181403445	-0.4084953807	 0.108863
H	 2.3355881936	-0.7476487272	-1.1237001979	 0.140479
