20
gdb 110828	3.23877	1.12494	1.01832	1.8691	75.02	-0.2296	0.0642	0.2938	1239.4999	0.169253	-440.219855	-440.21038	-440.209436	-440.254136	35.728	
C	-0.3497959394	 1.5966462831	 0.0881366606	-0.472987
C	-0.0281399549	 0.1086634674	 0.0398813082	 0.404316
O	-1.2376911473	-0.6405854192	 0.1185986659	-0.470496
C	 0.9228732143	-0.4884696342	-1.0413842431	-0.232071
N	 1.7001999013	-1.2663723494	-0.0071148981	-0.140525
C	 2.3522092066	-0.2831226993	 0.8779578911	-0.034663
C	 3.056976334	 0.9721884446	 0.4121316599	-0.0896
O	 4.2107244831	 0.678420068	-0.3612112014	-0.417475
C	 0.9050482502	-0.5327001239	 1.0690042577	-0.093505
H	 0.5399850511	 2.2287698239	 0.0941164955	 0.127059
H	-0.9493854461	 1.8824239705	-0.7856267806	 0.110199
H	-0.9363620718	 1.8175389615	 0.9850150952	 0.130608
H	-1.8018370995	-0.3653888125	-0.6124824586	 0.276837
H	 0.3979930263	-1.1820664842	-1.7003384131	 0.109627
H	 1.5320760155	 0.1953986915	-1.6385189064	 0.111673
H	 2.9569205127	-0.8223710949	 1.6111256935	 0.092476
H	 2.4332904526	 1.5937391187	-0.2298818447	 0.108534
H	 3.3073727368	 1.5763520709	 1.2995101519	 0.092167
H	 4.7279449817	 0.0179153164	 0.1116757998	 0.286066
H	 0.5188147526	-1.0480295987	 1.9434146868	 0.101763
