17
gdb 12629	3.30786	2.04348	1.37416	3.5084	71.35	-0.2238	-0.002	0.2217	917.7936	0.143173	-360.072281	-360.064198	-360.063254	-360.104842	29.065	
C	-0.0490396526	 1.5616430745	-0.0051166908	-0.377838
C	 0.0517107114	 0.0353783081	 0.0133901978	-0.036044
N	 0.8061449953	-0.4849560745	-1.1439907855	-0.266695
C	 1.7608504162	-1.1729360953	-0.6550312745	 0.052594
N	 1.8277000233	-1.2510988828	 0.7329697225	-0.082328
C	 2.8231867243	-1.9342696599	 1.5214022605	-0.356332
C	 0.7740203274	-0.4966536768	 1.252226621	 0.357738
N	 0.456555137	-0.2691902477	 2.4622336413	-0.559381
H	 0.9476218375	 2.0126509629	-0.0161826076	 0.117839
H	-0.5867143846	 1.8928374483	-0.8967510057	 0.126062
H	-0.575320201	 1.9045197506	 0.8890771093	 0.139741
H	-0.9604948234	-0.3868678307	-0.0169843721	 0.118969
H	 2.5099916306	-1.6948325748	-1.2441583952	 0.128605
H	 3.5314595875	-2.4319871164	 0.8559991693	 0.143529
H	 3.3780847206	-1.2317068144	 2.1551864263	 0.142104
H	 2.3644762147	-2.6924818997	 2.1672855244	 0.142817
H	 1.0891452658	-0.7263411514	 3.1205959791	 0.208621
