14
gdb 2927	6.64211	1.94819	1.55007	3.1656	54.45	-0.2556	0.0202	0.2758	765.9013	0.114461	-361.725962	-361.719085	-361.718141	-361.75736	23.601	
O	 0.1447974484	 1.344882706	 0.2608273932	-0.421427
C	 0.0436482766	-0.0414433301	 0.0738751679	-0.123765
C	-1.3867508561	-0.4791956752	-0.0197989216	 0.392056
N	-2.3715316675	 0.3178256773	 0.06200395	-0.334161
C	-3.5856399246	-0.5000740286	-0.0771299277	-0.185479
C	-3.0547107277	-1.9482248092	-0.2567527826	-0.111823
O	-1.6129735225	-1.799992593	-0.2013948824	-0.251348
H	-0.7640773709	 1.6783105318	 0.2825935077	 0.2976
H	 0.5635068294	-0.3556371629	-0.8445716169	 0.120949
H	 0.5202860952	-0.5879866982	 0.9024869559	 0.120957
H	-4.2155154211	-0.3920370695	 0.8116907354	 0.122647
H	-4.1719982482	-0.1592426046	-0.9364569974	 0.122646
H	-3.3566188755	-2.6292962997	 0.5430830983	 0.125572
H	-3.3130250058	-2.394585334	-1.2204816498	 0.125575
