23
gdb 120848	3.28759	0.622	0.56692	0.7518	83.65	-0.2592	0.0786	0.3378	2049.0218	0.203651	-425.408389	-425.397456	-425.396512	-425.445747	38.535	
C	-0.3894443926	 1.4863934797	-0.1399474407	-0.383334
C	-0.2601251762	-0.0259727505	-0.3343047007	-0.156008
C	 1.1087530227	-0.4435694108	-0.8915541966	-0.212252
C	 1.2139894395	-1.9387561242	-1.0686420658	 0.059954
O	 0.4855693236	-2.527313747	-2.1556165454	-0.269521
C	 1.9179408201	-2.6278696842	-2.1638608298	 0.048798
C	 2.6541356109	-1.9510209001	-3.2931471054	-0.217341
C	 2.4642679174	-2.6933593	-4.6130903864	-0.06474
O	 3.2245972493	-2.0144864007	-5.6007583421	-0.42264
H	 0.3653330297	 1.8637828818	 0.5592946981	 0.112477
H	-0.256797562	 2.020245067	-1.0875328129	 0.11611
H	-1.373678519	 1.7535805243	 0.2569634376	 0.113216
H	-0.4332501661	-0.5367183757	 0.622178019	 0.09409
H	-1.0388509217	-0.3837359183	-1.0179410803	 0.115204
H	 1.2831043451	 0.06245901	-1.8461429426	 0.104384
H	 1.9031991007	-0.1157078383	-0.2067456445	 0.097214
H	 1.1124364338	-2.5000062955	-0.1353115228	 0.08286
H	 2.2747360797	-3.6385193449	-1.9460376193	 0.083543
H	 2.3156588118	-0.9201383144	-3.4229173089	 0.114555
H	 3.7254359001	-1.9173171607	-3.058792816	 0.109101
H	 2.794489115	-3.7397726731	-4.5035845287	 0.082738
H	 1.3938171851	-2.71114925	-4.8662334106	 0.10541
H	 3.067314453	-2.4423045044	-6.4473409951	 0.286182
