16
gdb 22657	3.07746	1.09958	1.07403	2.5952	68.29	-0.2484	-0.0325	0.2159	1176.0927	0.122657	-474.98568	-474.977203	-474.976258	-475.019488	30.607	
O	-0.4581221391	 1.012357172	 0.8268964801	-0.392863
N	-0.1691172326	-0.2810412712	 0.3582926564	-0.210203
C	-1.2035611384	-0.8095436811	-0.1536130441	 0.370507
C	-2.5985785699	-0.2375219272	-0.2565955701	-0.154382
O	-3.3589880662	-1.2254670829	-0.9495054953	-0.249873
C	-2.7374590867	-2.4808451475	-0.7790866832	 0.002757
C	-1.2136399706	-2.1974169286	-0.7482586587	-0.343652
C	-3.1677487952	-3.1809877672	 0.5062349445	 0.153816
O	-3.7942605573	-2.6585673557	 1.3882554196	-0.231219
H	 0.3843296952	 1.290324689	 1.2018892697	 0.310898
H	-3.0086292851	-0.0461215923	 0.7431803639	 0.146972
H	-2.6275860234	 0.6961984298	-0.8269878205	 0.136573
H	-3.019524667	-3.1209712845	-1.6235895983	 0.107744
H	-0.8161191896	-2.187019619	-1.7684447718	 0.139329
H	-0.6305374284	-2.9136883889	-0.1649027204	 0.136394
H	-2.8257224358	-4.2415309746	 0.5763395684	 0.077202
