18
gdb 8555	2.79236	2.71154	1.70593	1.7559	71.45	-0.2201	0.0867	0.3068	825.9958	0.153007	-347.749544	-347.742143	-347.741199	-347.780591	29.111	
C	-0.1053226427	 1.5033303025	-0.0525530445	-0.507383
C	 0.0127463482	 0.0090976497	-0.025251179	 0.244388
C	 0.9162822133	-0.8695035246	-0.8983727628	-0.28066
C	 0.083489776	-2.0512977285	-0.3487410044	 0.070067
O	 0.4489864021	-2.0961233899	 1.0585936056	-0.329119
C	-0.2933661181	-0.878227431	 1.2077434213	 0.438811
C	-0.6226299155	-0.4154941052	 2.5858942599	-0.508541
C	-1.0934532438	-1.056116309	-0.0439567208	-0.245872
H	 0.8216468258	 1.9806029807	 0.2867368706	 0.123688
H	-0.3141903283	 1.8668170173	-1.0654367047	 0.120125
H	-0.914644216	 1.8581434541	 0.5943616208	 0.118274
H	 0.7267219706	-0.6931054364	-1.961446852	 0.097003
H	 1.992908666	-0.8981607239	-0.6982954301	 0.094766
H	 0.0413983978	-3.030599379	-0.8206549264	 0.082918
H	 0.2922312221	-0.2036015264	 3.1500758883	 0.132195
H	-1.2231367001	 0.4977386625	 2.5561785264	 0.125367
H	-1.1878082193	-1.1807668284	 3.1269379672	 0.131943
H	-2.150185878	-1.0245861847	-0.2744116155	 0.092029
