16
gdb 42446	4.57923	0.80032	0.7594	5.0387	71.96	-0.2636	0.0081	0.2718	1485.0339	0.12438	-434.080762	-434.07174	-434.070796	-434.116397	31.143	
O	 0.1944265984	 1.4093367234	-1.5930776142	-0.371059
C	 0.0746929994	 1.7817992348	-0.4445152466	 0.447734
N	 1.0009281821	 1.5220330645	 0.5420010564	-0.333772
C	 2.2798530495	 0.9371969525	 0.2007602763	-0.27715
C	 3.3928354166	 1.8940408326	 0.294156158	 0.253265
N	 4.2627885448	 2.6465409681	 0.4009374615	-0.2973
N	-1.000550791	 2.5528516289	 0.035473569	-0.137906
C	-2.3044195018	 2.3703628951	-0.5729051299	-0.208905
C	-2.0636955534	 1.9291803769	 0.8320338695	-0.236708
H	 0.9240386534	 2.0450210268	 1.400206603	 0.264311
H	 2.5069941021	 0.0792238618	 0.8440950993	 0.156204
H	 2.1941477081	 0.5772989723	-0.8288614775	 0.196965
H	-2.8552489838	 3.2854608937	-0.7661333815	 0.131108
H	-2.3788089395	 1.6065976216	-1.3408783524	 0.147351
H	-1.9896805226	 0.8605959824	 1.0168378822	 0.13512
H	-2.4289380122	 2.5185068648	 1.6679462069	 0.130741
