16
gdb 18205	3.54164	1.936	1.55126	5.0959	66.92	-0.249	0.0236	0.2726	843.3979	0.133351	-342.776793	-342.769903	-342.768959	-342.808306	26.116	
N	-0.1024262668	-1.1875675962	-0.2997221512	-0.338271
C	-0.0673372563	-0.0459177851	-0.1240976725	 0.322995
C	-0.0043671076	 1.4141488084	 0.0840810121	-0.183701
N	-0.5689891208	 1.7736396538	 1.4017896935	-0.280637
C	 0.5663219723	 2.0505590083	 2.3107549999	-0.196464
C	 1.7864859176	 2.378159659	 1.440319347	-0.034638
C	 2.4968719009	 1.2094667264	 0.8105024881	-0.28706
C	 1.4415624384	 1.9518940481	 0.0333454166	-0.040683
H	-0.6053284194	 1.8711944919	-0.7082345304	 0.124912
H	-1.1053866424	 2.6244307437	 1.2810088226	 0.227008
H	 0.3061156987	 2.8732242944	 2.9815800706	 0.111061
H	 0.7562207358	 1.16981925	 2.935418659	 0.124038
H	 2.3338851608	 3.2948479479	 1.62664651	 0.094652
H	 3.5273712997	 1.339787681	 0.498432104	 0.118355
H	 2.2627509763	 0.2103504971	 1.1671946852	 0.137955
H	 1.7280778728	 2.5323845614	-0.8347801947	 0.100478
