16
gdb 129620	3.15415	1.29795	0.98597	1.5922	72.83	-0.2084	-0.0313	0.1771	1150.8126	0.12558	-434.093472	-434.085022	-434.084078	-434.12683	30.817	
N	-0.2004674568	 1.3451219916	-0.3373210476	-0.615746
C	-0.1180479509	-0.0206010431	-0.0956138081	 0.309885
C	-1.0970424698	-1.0057710278	 0.002589295	 0.135233
C	-2.5849971491	-0.7830728887	-0.0252312289	-0.402275
C	-2.9559032774	-0.2029955258	-1.3770485839	 0.155805
O	-2.9659828213	 0.9829117866	-1.6123330665	-0.252034
C	-0.364819128	-2.2053303567	 0.1673974382	-0.090873
N	 0.9446390483	-2.005112083	 0.1935929866	-0.236434
N	 1.0699846423	-0.6630781646	 0.0217567671	-0.236701
H	 0.250119511	 1.9278001214	 0.3565349489	 0.249917
H	-1.149749683	 1.6501575405	-0.5191845524	 0.270557
H	-3.1066697288	-1.731740235	 0.1340610377	 0.119058
H	-2.9024323116	-0.0732865023	 0.7481897265	 0.122087
H	-3.1644833398	-0.942192303	-2.1800388218	 0.095024
H	-0.7570064565	-3.2057247129	 0.2888986274	 0.106692
H	 1.9876352815	-0.2593109171	-0.0600825981	 0.269805
