17
gdb 13921	3.38048	1.93138	1.54907	2.5089	68.76	-0.2367	-0.023	0.2137	873.0318	0.142605	-363.84598	-363.838635	-363.837691	-363.877734	27.763	
O	 0.090674014	 0.03982361	-0.2597782964	-0.295529
C	 0.015880573	 1.2143068737	-0.0509483311	 0.341818
C	-1.1130873163	 2.2034631814	 0.2870890919	-0.28918
N	-0.0616464772	 3.2316176403	 0.5165431837	-0.389858
C	 1.0215446215	 2.3708581084	-0.004727905	 0.251685
C	 2.3781555318	 2.1739513862	 0.7154232799	-0.265927
C	 3.0342389922	 1.9570505282	-0.674593627	-0.205955
C	 1.8043836003	 2.6447587574	-1.3247917116	-0.283011
H	-1.7853382923	 2.3798751421	-0.5634352735	 0.123632
H	-1.717605384	 1.9650890777	 1.1688049581	 0.132771
H	-0.1948058481	 4.0889335542	-0.0076426565	 0.220412
H	 2.695179384	 3.1102540719	 1.18364217	 0.109551
H	 2.4383500949	 1.3667930766	 1.4490087514	 0.11013
H	 4.0112207672	 2.4110090334	-0.8487957152	 0.101368
H	 3.0809339892	 0.897415884	-0.9345950756	 0.125167
H	 1.4011720511	 2.2288994154	-2.2515721933	 0.108679
H	 1.9616445488	 3.7210866291	-1.4534577298	 0.104247
