20
gdb 113722	3.45487	0.85462	0.74957	3.8424	80.5	-0.2897	0.0134	0.3031	1550.5622	0.169442	-403.146222	-403.136084	-403.13514	-403.182091	36.287	
C	-0.3633187435	 1.5752690497	 0.265551439	-0.385141
C	 0.1211355257	 0.1612330546	-0.0747396316	-0.188337
C	 0.8605874457	-0.4846009174	 1.0814169334	-0.0027
C	 0.1354947973	-1.2832210687	 2.1361839521	-0.295637
C	 1.0903102646	-1.9742718843	 1.189067133	-0.04412
C	 0.57189495	-2.9267468524	 0.1287901427	-0.033756
O	 1.3196275175	-2.8950334507	-1.0760067524	-0.411771
C	 0.5090633713	-4.3047037291	 0.6696145445	 0.263304
N	 0.4954151253	-5.3799173148	 1.0929208903	-0.31895
H	 0.4773512599	 2.2290928179	 0.5222683575	 0.116506
H	-0.8893422834	 2.0262716494	-0.5811604843	 0.115842
H	-1.0465802825	 1.5631576493	 1.1210942131	 0.119946
H	-0.7403619578	-0.4524818297	-0.362285152	 0.095363
H	 0.7772150082	 0.1919108154	-0.9527578136	 0.112621
H	 1.6934054626	 0.1134946416	 1.4454859418	 0.089966
H	 0.4231477245	-1.1886752744	 3.1768159028	 0.122422
H	-0.9259327248	-1.4589438852	 1.9859610127	 0.119275
H	 2.0428039713	-2.2868382933	 1.6105493419	 0.096591
H	-0.4444515151	-2.6446843176	-0.161644063	 0.136159
H	 2.2337560633	-3.1201779004	-0.8677181177	 0.292417
