21
gdb 112545	2.53647	1.15556	1.00101	1.1211	79.97	-0.2451	-0.0259	0.2192	1336.016	0.178847	-424.246077	-424.235667	-424.234723	-424.281613	37.436	
C	-1.1373736663	 2.2581081098	-1.6869614486	-0.383352
C	-0.6906787103	 1.1045785098	-0.7841520028	-0.195878
C	-1.6863979654	-0.0480325238	-0.7870098116	 0.025281
O	-1.8268669519	-0.7066047408	-2.0710105854	-0.349894
C	-1.4609344693	-2.0282859486	-1.5635274745	 0.293688
C	-2.6381225227	-2.9958795295	-1.6259475764	-0.425586
C	-0.2083575417	-2.5712627471	-2.2396229782	-0.424952
C	-1.2393784092	-1.3833615808	-0.1820739714	 0.29431
O	-0.8543898433	-1.7596940669	 0.8839604562	-0.296047
H	-0.3956955241	 3.062164473	-1.6916090685	 0.115977
H	-1.2715606862	 1.9095859824	-2.7147698989	 0.138204
H	-2.0896069675	 2.6800914497	-1.3473883344	 0.116334
H	 0.2885437339	 0.7324526862	-1.1071969197	 0.104125
H	-0.5759067664	 1.4441254578	 0.2525402577	 0.114535
H	-2.6628363639	 0.2906687704	-0.4077459342	 0.09927
H	-2.8915358933	-3.2044213419	-2.6702540723	 0.129958
H	-2.384155761	-3.9392609139	-1.1332616101	 0.13196
H	-3.5209182854	-2.5750187674	-1.1370635003	 0.124278
H	 0.6107819676	-1.8493595203	-2.1912178118	 0.125304
H	 0.1136302645	-3.496501264	-1.7523765711	 0.133008
H	-0.4154396781	-2.7859904743	-3.2929375837	 0.129476
