12
gdb 130335	3.51316	1.1463	0.87369	2.819	59.16	-0.2592	-0.0513	0.2079	1195.0453	0.07667	-505.910683	-505.902879	-505.901935	-505.943794	27.468	
N	 0.095416672	 1.3319810923	 0.2230553733	-0.592584
C	 0.0535166363	-0.0242392585	 0.0306350573	 0.298411
N	-1.0200065125	-0.7680615871	 0.084968809	-0.159247
O	-0.577518706	-2.0718353597	-0.0842676107	-0.165611
N	 0.7730234102	-2.1227012216	-0.268267652	-0.156037
C	 1.1722210747	-0.8891608094	-0.1898859405	 0.383441
O	 2.4467851457	-0.4570383858	-0.3338546883	-0.236597
C	 3.4755138912	-1.2913621504	 0.0712625949	 0.166223
O	 4.6061137071	-0.9914746551	-0.1195814874	-0.234079
H	 0.8644986799	 1.8043282676	-0.2281387272	 0.275603
H	-0.7900400375	 1.8053236592	 0.118639968	 0.276248
H	 3.0996106188	-2.1982941915	 0.5663371736	 0.144229
