21
gdb 57629	3.04307	0.96178	0.92774	4.0112	83.62	-0.2499	0.0407	0.2906	1386.31	0.181219	-383.259315	-383.249365	-383.24842	-383.294104	36.741	
C	-0.1021042088	 1.5461784077	-0.0290012805	-0.407107
C	-0.0038331202	 0.00596841	 0.0222852554	 0.069277
C	 0.8190287597	-0.4399712386	 1.2507143093	-0.402708
C	-1.4135597797	-0.6503723816	 0.0490383216	-0.150495
N	-2.1729537563	-0.2243415701	 1.2161680645	-0.073869
C	-3.2241816071	 0.7698918469	 1.0074485724	-0.222034
C	-3.5667798263	-0.6542803572	 1.2626290552	-0.223175
C	 0.6652177515	-0.4664316354	-1.2009853689	 0.263962
N	 1.1825833271	-0.8422787824	-2.1641347122	-0.344243
H	 0.8930662342	 1.9917277212	-0.1050540691	 0.132399
H	-0.6904259098	 1.8786646357	-0.8889641047	 0.125761
H	-0.5767205941	 1.9106995417	 0.8845712697	 0.137803
H	 0.2795914653	-0.1610169059	 2.1579568347	 0.142813
H	 0.9650075948	-1.5236730301	 1.2523984652	 0.128365
H	 1.8022644739	 0.0376169638	 1.2535235804	 0.126484
H	-1.9361620186	-0.4288099905	-0.8971728401	 0.098623
H	-1.2871137873	-1.7373052818	 0.1025689857	 0.120091
H	-3.3340052206	 1.5144279177	 1.790540669	 0.122208
H	-3.3773580717	 1.1442367211	-0.0034255341	 0.116719
H	-3.9500511132	-1.2301130084	 0.4217725392	 0.116304
H	-3.9295646828	-0.9720169039	 2.2357537972	 0.122822
