16
gdb 12770	3.89667	1.69588	1.30917	2.4313	68.63	-0.2191	0.0163	0.2355	945.5701	0.129428	-379.86867	-379.860659	-379.859715	-379.901049	29.561	
C	-0.0249805433	 1.3670257405	 0.0545305135	-0.341015
N	-0.0180107054	-0.0877189406	 0.0642584971	-0.326877
C	-1.0951041715	-0.7017070515	-0.146783879	 0.317104
N	-2.4722484405	-0.3123804802	-0.3455267367	-0.374115
C	-2.8900575513	-1.7033764721	 0.0167033303	-0.111523
C	-2.4013931661	-2.6023629205	-1.0778991108	-0.302875
C	-1.4147381819	-2.1598451249	-0.0276841904	 0.309219
O	-0.6472956237	-3.0703818143	 0.6508861974	-0.444087
H	 0.8341368033	 1.7227370058	-0.5231267026	 0.134192
H	-0.9335114969	 1.8119513091	-0.37421686	 0.11327
H	 0.1009766264	 1.7465490223	 1.0762642946	 0.123792
H	-2.78842392	 0.4069135664	 0.2970264586	 0.238424
H	-3.7019845383	-1.9009645966	 0.7022828209	 0.115492
H	-2.6687537165	-3.6490453289	-0.96175014	 0.129255
H	-2.3527689646	-2.2396052442	-2.1013604789	 0.122676
H	-0.1239582997	-2.5750322604	 1.293622906	 0.29707
