17
gdb 50779	6.84224	0.53527	0.52831	2.3585	80.03	-0.2527	-0.0318	0.2209	2041.8202	0.133582	-421.780294	-421.770756	-421.769812	-421.817982	31.781	
O	-0.5151864514	 0.0056049709	 0.2346120463	-0.229067
C	 0.2632439132	 0.6682210042	-0.3942431072	 0.171856
C	 0.8841257512	 1.9673756305	 0.1270490606	-0.416152
C	 1.0167170004	 2.9753531775	-0.9131768821	 0.038954
C	 1.1084631674	 3.7744383961	-1.8102773451	 0.107574
C	 1.2182328363	 4.7547377354	-2.8764583076	-0.027005
C	 0.7328716819	 6.2018901769	-2.5815746889	-0.285454
C	 2.1774553963	 6.6050061897	-2.9318600696	-0.058818
O	 2.573168848	 5.2260770137	-3.1013487433	-0.278818
H	 0.6055474069	 0.3750103762	-1.4101476452	 0.096836
H	 0.2884373553	 2.3158199632	 0.9770763818	 0.155543
H	 1.8789564148	 1.7058952512	 0.51990752	 0.161423
H	 0.8014397485	 4.3377168536	-3.8034492571	 0.103937
H	-0.0501679055	 6.5730593568	-3.2432400258	 0.118148
H	 0.4461912404	 6.3682467373	-1.5434812561	 0.124825
H	 2.2923533439	 7.1772098032	-3.8605514262	 0.105107
H	 2.7487827423	 7.0976016334	-2.1371453843	 0.111109
