21
gdb 118251	2.73774	0.79816	0.66908	3.3431	76.43	-0.2596	0.0661	0.3256	1725.7567	0.179755	-461.320482	-461.310019	-461.309075	-461.357134	36.688	
C	-0.5560116923	 1.11747171	-0.7734034271	-0.224325
O	-0.8204752968	-0.2622108785	-0.6822690775	-0.230402
C	-0.7466100105	-0.75397157	 0.6349564099	-0.078631
C	-1.0159403952	-2.2597393188	 0.6254571386	 0.099218
O	-0.83000639	-2.7872868905	 1.9353240254	-0.435537
C	-2.3952268669	-2.6057845845	 0.0531844496	-0.244732
C	-2.6057920529	-4.0949264921	-0.0663496274	 0.101996
C	-3.4246058901	-4.685315777	-1.1310056042	-0.183056
O	-1.9989243281	-4.7290957464	-1.1985957204	-0.237116
H	-0.6303748476	 1.3962400374	-1.8271698275	 0.129568
H	-1.2819395769	 1.7113586123	-0.1953995073	 0.103556
H	 0.4539937811	 1.3633047215	-0.4099772095	 0.107556
H	 0.2470008162	-0.5713916125	 1.0741991699	 0.098325
H	-1.4892687052	-0.2478884924	 1.2822732912	 0.067876
H	-0.2504358031	-2.7439822259	 0.00987308	 0.118448
H	-1.5008037861	-2.3975700584	 2.5079370931	 0.277505
H	-3.1712761605	-2.1773494601	 0.7064573332	 0.082191
H	-2.4997879997	-2.1352095607	-0.9287246144	 0.126912
H	-2.4894846704	-4.6551109426	 0.8613809339	 0.09878
H	-3.916629877	-5.6441191901	-0.9715649028	 0.111688
H	-3.906893388	-4.0339018707	-1.8595004166	 0.110179
