14
gdb 81882	3.11096	1.33582	1.02774	2.1997	64.56	-0.2464	-0.0616	0.1849	1093.9641	0.099519	-473.789123	-473.781094	-473.78015	-473.822076	29.014	
O	-0.0863302524	 1.5030301949	 0.1152124069	-0.419645
C	 0.0556103223	 0.1247064477	 0.0022434344	 0.036114
C	-1.2276225233	-0.7330892652	 0.0639446707	-0.118184
N	-2.0327583546	-0.2923341733	-1.0479477229	-0.370098
C	-0.9700551951	-1.3183874934	-1.3321382718	 0.107842
C	-1.373833025	-2.6608710314	-1.7873503061	 0.052967
O	-2.5153017277	-3.0582559235	-1.7102472029	-0.273732
C	 0.3296679675	-0.5447545615	-1.4009337587	 0.330585
O	 1.2692287246	-0.5771180398	-2.1371950114	-0.291327
H	-0.8136979724	 1.7553272708	-0.4691249035	 0.302019
H	 0.8239263852	-0.1974983935	 0.7120409078	 0.126035
H	-1.6382626158	-1.2813194886	 0.9028928283	 0.135986
H	-2.9087568215	-0.8212342957	-1.0591363963	 0.26777
H	-0.5590336718	-3.2905908075	-2.1934518944	 0.113668
