16
gdb 35336	4.68135	0.97865	0.93247	3.3986	69.1	-0.2645	-0.0078	0.2567	1242.11	0.123928	-437.850052	-437.842032	-437.841088	-437.883782	28.869	
N	-0.6208023955	-1.0056876618	-0.7710917362	-0.310763
C	-0.300749086	 0.053371775	-0.4378037586	 0.278223
C	 0.0852089026	 1.3982643948	-0.00246922	-0.012383
C	-0.2215335618	 1.7548458283	 1.4739406895	-0.374008
C	 1.3077924564	 1.8478547035	 1.6208221447	 0.369586
C	 2.0399490294	 3.0758086713	 2.185060433	-0.1292
O	 2.6285604155	 2.2846813168	 3.2362598062	-0.269774
C	 2.1130149648	 1.0623983915	 2.6691328241	-0.125513
O	 1.5017561025	 1.5231807037	 0.2289556315	-0.297599
H	-0.2674243582	 2.1246696349	-0.7427934755	 0.133508
H	-0.761896929	 2.6926405935	 1.606695286	 0.132932
H	-0.7020942927	 0.9661469243	 2.0526173369	 0.143648
H	 2.7881954462	 3.4816566632	 1.4920231305	 0.118946
H	 1.4160652062	 3.8896977153	 2.5741206693	 0.107913
H	 1.5404765343	 0.4736597923	 3.3955814085	 0.111948
H	 2.8981790954	 0.4392748735	 2.2228596801	 0.122537
