12
gdb 132830	3.0267	1.51365	1.00903	2.6693	70.56	-0.2848	-0.0826	0.2021	1046.66	0.079239	-439.699086	-439.692335	-439.691391	-439.730561	24.972	
F	 0.0042217591	 0.0346528401	 0.0040280052	-0.042513
C	-0.0104782841	 1.3602842758	 0.0108932594	 0.183845
C	-1.2209037004	 2.0424972387	 0.0300004787	-0.077181
N	-1.2924344508	 3.3720561167	 0.0376228902	-0.255767
C	-0.147825556	 4.0626705675	 0.0262814608	 0.012551
C	 1.1072470009	 3.4679336693	 0.0070351491	-0.190343
C	 1.190730536	 2.0704546698	-0.0010849817	 0.051685
C	 2.4460728808	 1.3895595721	-0.0207730248	 0.22934
N	 3.4713530827	 0.8545204049	-0.0367484604	-0.32194
H	-2.1492887015	 1.4783949021	 0.0391799836	 0.140871
H	-0.2383175953	 5.144747641	 0.032903908	 0.130415
H	 2.0106179686	 4.0652541018	-0.0016520281	 0.139036
