17
gdb 3433	4.62395	2.64092	1.91915	0.2434	69.54	-0.2166	0.0317	0.2483	717.8665	0.149804	-272.589999	-272.583609	-272.582665	-272.619815	25.214	
C	-0.0164510625	 1.4917657361	 0.0633150893	-0.497141
C	-0.0102767142	-0.0035504128	 0.005219087	 0.344656
C	 0.0170857306	-0.7762640574	-1.0870184383	-0.182941
C	-0.0130054368	-2.2546554024	-0.7613623651	-0.264391
C	 0.0547103512	-2.2828581202	 0.7659277071	-0.031242
C	 1.2592709156	-1.6764444872	 1.4367630473	-0.2765
C	 0.0066564405	-0.8421661912	 1.2464353742	-0.121643
H	 0.8593194716	 1.8729520846	 0.6037625456	 0.12589
H	-0.0214628228	 1.9345067274	-0.9364153937	 0.120944
H	-0.8981594649	 1.8624858394	 0.6018774966	 0.12308
H	 0.0748702266	-0.4050996612	-2.104927344	 0.080575
H	-0.9350215411	-2.7266934099	-1.1286604261	 0.102206
H	 0.8168826364	-2.8030133662	-1.2269113708	 0.104063
H	-0.4777381809	-3.0619993308	 1.2984317009	 0.081521
H	 1.4868073921	-2.0211126805	 2.440529529	 0.104973
H	 2.1279789686	-1.4264928853	 0.8351713756	 0.108231
H	-0.5573718202	-0.5309594223	 2.1200116754	 0.07772
