17
gdb 17527	4.33218	1.77936	1.58705	3.1567	67.26	-0.2316	0.0684	0.3	847.2467	0.143063	-363.784335	-363.777384	-363.77644	-363.815412	27.028	
O	 0.5022748091	 0.3769274586	-0.9036803611	-0.421755
C	-0.1399454245	 0.332337003	 0.3634052066	-0.214914
C	-1.4436807341	-0.3907086444	 0.2027810304	 0.3218
C	-2.3564304436	-0.6911460186	 1.4245750333	-0.302813
C	-2.8977230046	-1.8518298965	 0.5919006581	-0.032942
C	-1.6910241892	-1.8845842515	-0.2658381059	-0.091241
N	-2.9827374498	-1.4435117594	-0.8569394797	-0.148067
C	-2.4780461881	-0.0306760805	-0.8804920619	-0.182032
H	 1.3381488107	 0.8412612496	-0.8023707682	 0.289995
H	 0.4846195581	-0.1863053958	 1.1089631461	 0.088186
H	-0.3343551276	 1.34700242	 0.7517334368	 0.089613
H	-1.7865403991	-1.0650145401	 2.2802609386	 0.103239
H	-3.0401835583	 0.1010426311	 1.7501828998	 0.094211
H	-3.549285941	-2.6599564937	 0.8964574633	 0.09696
H	-1.0686191849	-2.674518897	-0.6639438284	 0.097583
H	-3.2237692896	 0.7409343928	-0.6511803806	 0.088352
H	-2.0225977834	 0.1587781123	-1.8537998373	 0.123824
