18
gdb 22373	3.14458	1.19397	1.00972	2.242	76.73	-0.2452	-0.0087	0.2365	1212.5949	0.146203	-439.00687	-438.998319	-438.997375	-439.040132	32.319	
C	-0.3748802661	 1.5680479242	 0.0182701381	-0.498799
C	 0.0265367908	 0.1125976617	 0.0112156956	 0.295481
C	-1.0436782234	-0.970776884	 0.2505101274	-0.116387
O	-0.2330354003	-1.6386298542	 1.2447843115	-0.287099
C	 0.798260594	-0.6271775796	 1.1664155877	-0.037631
C	 1.8774642859	-0.9744496594	 0.1680445258	 0.44436
C	 1.1336425194	-0.3453361926	-0.9975798494	-0.395565
N	 3.0115630448	-1.5050989354	 0.355601008	-0.239616
O	 3.7223110197	-1.6175944674	-0.8492583293	-0.386436
H	 0.5022783365	 2.2224333267	 0.0613075493	 0.123772
H	-0.931794143	 1.8239918768	-0.8911650499	 0.124824
H	-1.0128977263	 1.8018899	 0.8769981894	 0.124128
H	-1.9778139409	-0.5961453178	 0.6899292374	 0.099706
H	-1.283650042	-1.6210485569	-0.5998621074	 0.102876
H	 1.0716455902	-0.2231573628	 2.1442135051	 0.083977
H	 0.8131716878	-1.0276183921	-1.7908982585	 0.124714
H	 1.6895144295	 0.4773256011	-1.459383506	 0.128377
H	 4.5497203135	-2.0191901983	-0.5620797449	 0.309321
