17
gdb 86012	2.37919	1.61845	1.28396	3.3297	69.33	-0.2525	-0.0504	0.2021	1024.868	0.134747	-458.975268	-458.966818	-458.965874	-459.007987	32.344	
O	-0.5467299397	 1.2663645469	-0.8834433065	-0.439041
C	-0.0574514942	 0.1406068744	-0.1751573031	 0.08968
C	-1.160589783	-0.869088884	 0.2249242307	-0.30293
C	-1.1552531579	-1.9503880239	-0.8896065592	 0.27365
O	-1.506607016	-3.2569462975	-0.4643163219	-0.487407
C	-2.1605991917	-1.6218262454	-1.9959354362	 0.148388
O	-2.3309123722	-0.5151063127	-2.4449648463	-0.256032
C	 0.2549987703	-1.8279823447	-1.449711339	-0.160031
C	 0.8547323473	-0.7107340713	-1.0423933083	-0.080908
H	-1.1091905864	 0.9243586034	-1.5963292955	 0.290668
H	 0.4555991156	 0.5536687982	 0.6988198566	 0.085844
H	-0.8992439841	-1.3697053226	 1.1630457001	 0.100084
H	-2.1264003254	-0.3779461853	 0.357657766	 0.12066
H	-0.8237482138	-3.5647246981	 0.1406384307	 0.282929
H	-2.7266015291	-2.4992665323	-2.3695643733	 0.111174
H	 0.6509720067	-2.5710317647	-2.1332396387	 0.111736
H	 1.8416629936	-0.37751848	-1.3431490261	 0.111536
