17
gdb 126911	3.21245	1.04703	0.82972	4.3978	73.96	-0.2176	-0.0131	0.2045	1376.0615	0.134642	-451.302155	-451.292579	-451.291635	-451.337676	33.65	
C	-0.0200320703	 1.5161367933	-0.1546429057	-0.394838
C	-0.1862275712	 0.03091432	-0.4557643382	-0.117536
N	 1.0932136467	-0.5593427492	-0.8854117723	-0.408098
C	 1.0656421375	-1.9086284721	-1.2473190918	 0.126503
C	 1.2323417307	-2.4284506467	-2.5279184857	 0.452577
N	 1.4096315055	-1.7239895896	-3.6765194174	-0.581491
O	 1.1544969231	-3.7243078962	-2.5416516688	-0.265876
N	 0.8905290148	-4.0826191713	-0.9978463768	-0.059231
N	 0.8621184716	-2.9927308524	-0.4344642652	-0.102038
H	 0.6876584039	 1.6757559152	 0.6672979634	 0.11595
H	 0.3550152259	 2.0522299823	-1.0315917348	 0.121733
H	-0.9751689581	 1.9582745768	 0.1425617183	 0.122893
H	-0.5976361384	-0.4895650915	 0.4230315031	 0.10554
H	-0.9019785088	-0.114307315	-1.2723122965	 0.112813
H	 1.8153283044	-0.3649432975	-0.1989084671	 0.230753
H	 1.6924099764	-0.7652536467	-3.5349183428	 0.268653
H	 1.8386997263	-2.2063382594	-4.4497897917	 0.271693
