17
gdb 102082	2.18151	1.23781	0.91205	2.7891	66.75	-0.2522	-0.0525	0.1998	1283.842	0.130895	-496.093038	-496.082825	-496.081881	-496.129263	34.476	
C	-0.1188482119	 1.3708298989	 0.331738732	-0.245043
O	-0.2673113717	-0.0114996278	 0.0650545756	-0.246354
C	 0.5931818513	-0.4892833061	-0.9423121437	 0.007543
C	 2.0383632926	-0.6083442306	-0.4482771214	 0.149036
O	 2.9899432063	-0.6217981541	-1.1821883522	-0.245728
C	 0.0944284593	-1.8892853845	-1.3579332964	 0.028593
O	 0.2645579218	-2.826640872	-0.3359734686	-0.436589
C	-1.3687083216	-1.795710719	-1.7604145167	 0.144863
O	-2.2085387891	-2.4808003531	-1.2348233649	-0.252407
H	 0.898633134	 1.6214072745	 0.6647307206	 0.119973
H	-0.3509905052	 1.9780260974	-0.5558861132	 0.115899
H	-0.8213683052	 1.6194555234	 1.1294578273	 0.142606
H	 0.588211812	 0.1646531268	-1.8302073125	 0.09042
H	 2.1247286067	-0.7040335471	 0.6551782928	 0.105896
H	 0.674716467	-2.1796132029	-2.2502700848	 0.118547
H	-0.6293966397	-3.1139793695	-0.0911889015	 0.301235
H	-1.6139805567	-1.0708110145	-2.5623736423	 0.101512
