21
gdb 87236	4.39083	0.73011	0.68952	1.9676	85.82	-0.2546	0.0566	0.3112	1697.2251	0.178605	-387.051191	-387.040527	-387.039583	-387.087395	38.55	
C	 0.0932546324	 1.3685937536	-0.3894580261	-0.427693
C	 0.0418401316	-0.0445514224	 0.1325614417	 0.026731
O	 1.2760640198	-0.7716954588	 0.2050599273	-0.302964
C	 0.5673819362	-0.5103618124	 1.4329842167	 0.387403
C	 1.2558265735	 0.4308260416	 2.3993320415	-0.469689
C	-0.0480347228	-1.7569568986	 2.05237833	-0.256091
C	 1.0193362031	-2.7821465759	 2.4985571112	-0.351954
C	 0.4322179096	-4.0033977841	 3.0338049388	 0.295177
C	-0.0787684904	-4.9993349443	 3.4721788857	-0.441576
H	 0.9180481383	 1.9393074394	 0.040128968	 0.127101
H	 0.2221557157	 1.3587374303	-1.4769619566	 0.131971
H	-0.845533587	 1.8890109313	-0.1701676715	 0.122445
H	-0.7788678376	-0.6335634262	-0.2847304789	 0.083231
H	 1.7322163199	 1.2634369063	 1.8808861605	 0.129863
H	 0.5366174785	 0.8331671073	 3.120957043	 0.122624
H	 2.034861266	-0.0922133949	 2.963348357	 0.128805
H	-0.6707445254	-1.4778454874	 2.909918974	 0.108995
H	-0.7042205932	-2.2407850411	 1.3232141115	 0.114583
H	 1.6523942592	-3.0179793816	 1.6350102517	 0.15024
H	 1.6789929463	-2.339647615	 3.2548069345	 0.128587
H	-0.5150124438	-5.8858897669	 3.8603108502	 0.192211
