18
gdb 85461	2.41113	1.44171	1.07186	3.077	78.95	-0.2604	0.0211	0.2815	1166.5529	0.147091	-401.940238	-401.931511	-401.930567	-401.973667	33.01	
C	-0.2045806758	 1.4946175785	-0.0389184116	-0.421057
C	 0.1307674232	 0.0081517837	-0.0275544161	 0.003491
C	 1.0460794513	-0.488763774	-1.1552099819	-0.310778
C	 1.6275907996	-1.7622048231	-0.5876424834	 0.413758
N	 2.1453855518	-2.7080968461	-1.2403266801	-0.540572
O	 1.4920892064	-1.751644344	 0.7806474519	-0.232719
C	 0.9047348456	-0.5065802255	 1.2182319619	-0.097832
C	 1.9439442799	 0.4015037047	 1.7015589515	 0.367814
C	 2.7958452283	 1.1484596581	 2.1021768453	-0.480924
H	 0.7022293693	 2.1044613733	-0.0005821036	 0.13482
H	-0.7540216197	 1.7527604747	-0.9492796964	 0.122905
H	-0.8309342224	 1.7680267994	 0.8165109855	 0.121289
H	-0.7991917848	-0.5721234348	-0.060087252	 0.095071
H	 0.5391182014	-0.6745955131	-2.102288521	 0.136599
H	 1.8560819999	 0.227289439	-1.3401994676	 0.136574
H	 2.47011965	-3.4434021688	-0.6095949624	 0.223104
H	 0.2263668182	-0.7523092995	 2.0409408874	 0.119911
H	 3.5533996378	 1.8009827376	 2.4614593427	 0.208547
