18
gdb 113485	4.65537	0.93481	0.92177	1.5768	72.18	-0.2405	0.0676	0.3081	1309.4608	0.147008	-439.002872	-438.994631	-438.993687	-439.03617	31.171	
O	 0.081820411	 1.2844612825	-0.5822197601	-0.415542
C	 0.0706621823	 0.1516702747	 0.267717268	-0.079418
C	-1.3137212031	-0.4332702461	 0.3881013153	-0.087657
O	-1.7857222329	-1.0971205327	-0.8107086329	-0.303547
C	-1.5659744669	-1.8759446891	 0.3503825185	 0.443478
C	-0.6706689319	-3.1205031951	 0.3272634339	-0.261729
N	-1.7899321372	-3.9710782654	 0.8809765984	-0.123265
C	-2.1267921043	-3.3817084637	 2.1868332828	-0.239333
C	-2.6515349858	-2.7180729982	 0.9731087555	-0.135932
H	-0.2799090921	 0.9979752224	-1.4287831895	 0.294405
H	 0.766699114	-0.6255061911	-0.0831963482	 0.092635
H	 0.4181665819	 0.4967315367	 1.2477680963	 0.113771
H	-2.0599882079	 0.2162342632	 0.8477751705	 0.101422
H	-0.4324424554	-3.4283261386	-0.6929250047	 0.132959
H	 0.2373994677	-3.1266148191	 0.9391520809	 0.110468
H	-2.8153170691	-3.9909925593	 2.7642411564	 0.129556
H	-1.3447846578	-2.9003185924	 2.7716083535	 0.11387
H	-3.6984558025	-2.7069302188	 0.6902044055	 0.113857
