20
gdb 8366	5.15653	1.10573	1.08106	1.29	75.67	-0.2632	0.0804	0.3436	1169.1415	0.177751	-348.951645	-348.943651	-348.942707	-348.984488	30.332	
O	-0.115098277	 1.4418200713	 0.0105335744	-0.418898
C	 0.0223885709	 0.0282180695	 0.0020333522	-0.073084
C	-1.3774234776	-0.5756869087	 0.0115262477	-0.320898
C	-1.379369944	-2.0839685172	 0.0041122677	 0.360305
C	-0.764669989	-3.05277541	 1.0695611176	-0.24747
C	-1.4076484813	-3.9717348624	-0.0050145708	-0.043513
C	-2.6314308906	-3.014461397	 0.0090185062	-0.259966
C	-0.7809719557	-3.0421594069	-1.080076451	-0.247481
H	 0.7649583308	 1.8291315169	 0.0042408899	 0.284252
H	 0.5691274326	-0.3134810033	-0.8915123308	 0.087354
H	 0.5851051372	-0.3225882307	 0.8820358714	 0.087338
H	-1.9090823392	-0.2079198026	 0.8980260806	 0.105443
H	-1.9247825177	-0.1992395598	-0.8616743005	 0.105433
H	 0.3266049654	-3.0763294165	 1.1459342593	 0.084349
H	-1.2326836063	-3.0492083116	 2.0587198717	 0.086066
H	-1.4250727969	-5.0619892306	-0.0102658168	 0.068936
H	-3.2412321282	-3.006477969	 0.917615224	 0.085713
H	-3.2549856345	-2.9974963356	-0.8900709936	 0.085708
H	-1.2639028526	-3.0288638978	-2.0619549249	 0.086064
H	 0.3090230539	-3.0648700279	-1.1731834342	 0.084349
