21
gdb 101214	3.9361	0.80207	0.7064	3.1554	79.8	-0.2411	-0.0187	0.2224	1614.3315	0.179836	-424.239164	-424.229142	-424.228197	-424.274861	36.714	
C	-0.0843054951	 1.5908130361	 0.103019908	-0.382102
C	-0.0356719512	 0.0618781576	 0.0567529789	-0.192999
C	-1.4241070402	-0.5842645194	-0.0312829367	 0.124472
O	-2.142880999	-0.1359449358	-1.1792027896	-0.430796
C	-1.3672928052	-2.1089559334	 0.0136643295	 0.00009
C	-1.0171403628	-2.7676463362	 1.3876675126	-0.368451
C	-2.2803536257	-3.633956571	 1.2336425466	 0.402565
O	-2.6975849409	-4.5937062658	 1.8128098018	-0.288379
C	-2.7417087441	-2.8481998656	-0.0020570622	-0.363364
H	 0.9220342543	 2.0196891174	 0.1044865557	 0.111313
H	-0.6277676184	 1.9849827709	-0.7595794337	 0.128676
H	-0.5979308572	 1.9402858142	 1.0054381708	 0.116015
H	 0.5553934417	-0.2695114449	-0.8102074547	 0.085645
H	 0.4830220621	-0.3268686232	 0.9418921596	 0.103426
H	-2.0323229312	-0.2358189565	 0.81592164	 0.081648
H	-1.6401669639	-0.3960992752	-1.9597399398	 0.276969
H	-0.7071185071	-2.4747048967	-0.7813154405	 0.069276
H	-0.0744021111	-3.3132734476	 1.475345012	 0.129427
H	-1.0961130987	-2.0757554943	 2.2345146045	 0.129389
H	-3.5876261959	-2.1859560083	 0.2118546416	 0.139793
H	-2.9945951004	-3.4498608722	-0.8786174245	 0.127389
