18
gdb 80172	2.3143	1.75823	1.43251	3.0534	71.93	-0.2479	0.0278	0.2757	995.1344	0.147901	-439.083634	-439.075283	-439.074339	-439.116424	31.79	
C	 0.0378637287	 1.6215996582	 0.0433611897	-0.397924
C	 0.0678424464	 0.0903574685	 0.0264548833	-0.088978
C	 0.8220979675	-0.5767270719	-1.1149206349	-0.134534
C	 2.3371056793	-0.5034772921	-1.1272685809	 0.075647
O	 2.9795740566	 0.4532461104	-0.3437505649	-0.412355
C	 1.641177074	-1.6674832414	-0.4705715484	 0.000829
O	 1.517545913	-1.5712302633	 0.9345453772	-0.247889
C	 0.7015866198	-0.5125032498	 1.2738022854	 0.409348
N	 0.5049339045	-0.1245602055	 2.4560958104	-0.535759
H	 1.0521426872	 2.0230674728	 0.034843068	 0.146358
H	-0.5000944917	 2.0040232733	-0.8293797856	 0.106284
H	-0.4686499878	 1.9680496643	 0.9472943011	 0.140374
H	-0.9663524282	-0.2787025096	-0.0041264702	 0.108565
H	 0.3107333317	-0.7335413228	-2.0568810905	 0.100495
H	 2.8111607544	-0.7032169053	-2.0880948106	 0.098721
H	 3.5610821662	-0.0017178061	 0.2754496939	 0.298694
H	 1.7312082786	-2.6904801185	-0.8143090034	 0.110448
H	 1.03690375	-0.6890197511	 3.1199026603	 0.221675
