15
gdb 127495	3.85095	1.1471	0.89378	7.6929	75.58	-0.27	-0.035	0.2349	1243.6724	0.113321	-413.037792	-413.0291	-413.028156	-413.072588	29.649	
C	-0.0263619231	 1.4013289393	-0.0600151106	-0.331368
N	 0.0160740269	-0.0468740566	 0.0176962572	 0.007157
N	-0.0375686764	-0.787097664	-1.1077035604	-0.287032
C	-0.0175746734	-2.025619145	-0.626420797	 0.229857
N	 0.0425672442	-2.1180688575	 0.7315234692	-0.33473
C	 0.0596948387	-0.8522019001	 1.1121746159	 0.342547
C	 0.1183596539	-0.3619204392	 2.5180869168	-0.512084
C	-0.0514528988	-3.1638956322	-1.4852748109	 0.264686
N	-0.0792786554	-4.0912043189	-2.1750285898	-0.333414
H	 0.588671982	 1.8308749438	 0.732881569	 0.151478
H	 0.3682607492	 1.6982021625	-1.0310588193	 0.176958
H	-1.0523513964	 1.7687532247	 0.0400198423	 0.15697
H	 1.0066082014	 0.2543836032	 2.6941211497	 0.147916
H	-0.7605424539	 0.2393593924	 2.7733885281	 0.148109
H	 0.1564378013	-1.2239165222	 3.1841691399	 0.172951
