14
gdb 32387	6.56735	0.89584	0.79433	5.842	75.42	-0.222	-0.0575	0.1645	1359.9733	0.101851	-432.89845	-432.890342	-432.889398	-432.931475	28.853	
C	 0.0975766529	 1.4075315046	 0.1164812926	-0.335574
N	-0.1295843725	-0.0073994887	-0.103718989	-0.385925
C	 0.5475135803	-0.6429726898	-1.1123285424	 0.316063
C	 1.2169035343	-0.1349092088	-2.1962446809	-0.123217
O	 1.6706892168	-1.1949654685	-2.9380663741	-0.161284
C	 1.2620976666	-2.2803754918	-2.2546827893	 0.302911
N	 0.5946514438	-2.0217838318	-1.1668407591	-0.357922
C	 1.5953987603	-3.5572206582	-2.775553071	 0.262671
N	 1.8686260153	-4.5975590207	-3.2018549867	-0.325717
H	 1.1530793047	 1.6540422283	 0.3101998957	 0.121606
H	-0.2295018414	 1.9776565841	-0.7603638955	 0.13813
H	-0.5014490206	 1.737430471	 0.9669884879	 0.138964
H	-0.2354554441	-0.5786630738	 0.7209377436	 0.256069
H	 1.4412536537	 0.8464769842	-2.5709738019	 0.153225
