19
gdb 89394	2.66489	1.41109	1.14917	3.7841	75.24	-0.2345	-0.0132	0.2213	1126.6582	0.158706	-423.046475	-423.037814	-423.03687	-423.079593	33.389	
C	-0.561084633	 1.3826924488	 0.1292308429	-0.403488
C	 0.0259754321	-0.0252707871	-0.0482098625	-0.091849
C	 0.8328667854	-0.2662153666	-1.3494005334	-0.318254
C	 2.28944749	-0.4945825981	-0.9344872258	 0.402219
O	 3.0558916736	-1.3713320819	-1.6996116205	-0.467224
C	 2.9580063176	 0.6021589262	-0.1744433606	-0.35164
C	 2.3568019594	-0.6011294317	 0.5705067776	-0.196572
C	 0.9796649335	-0.3973885556	 1.1095605826	 0.412314
O	 0.6328850114	-0.5351332289	 2.2571570134	-0.340943
H	 0.2049532841	 2.1600109598	 0.0372472107	 0.118296
H	-1.3281121172	 1.5813624411	-0.6254656637	 0.118431
H	-1.0175507843	 1.4740397199	 1.1185736322	 0.141402
H	-0.803219168	-0.7379939988	 0.0168188934	 0.110451
H	 0.4899505494	-1.1726513746	-1.8564876951	 0.116755
H	 0.7353273431	 0.5637056182	-2.0590467853	 0.096692
H	 3.3497254889	-0.9028194529	-2.4886748628	 0.285912
H	 4.0422640032	 0.6118360595	-0.1888930824	 0.127831
H	 2.4925520808	 1.5778260798	-0.0834432654	 0.123433
H	 3.03809439	-1.2637907474	 1.0880300346	 0.116233
