16
gdb 29404	5.6718	0.96723	0.83057	1.5385	77.72	-0.207	-0.001	0.206	1352.1289	0.125347	-434.106221	-434.097734	-434.09679	-434.140187	30.399	
C	-0.0066545306	 1.5362011611	 0.1191211098	-0.490302
C	 0.0005317141	 0.0529788922	-0.0273738206	 0.259985
C	-0.0489804586	-0.7033924355	-1.1472848259	-0.12857
O	-0.0167267001	-2.0343549261	-0.7728345911	-0.149409
C	 0.0507876007	-1.9846024395	 0.5629717206	 0.522757
N	 0.0998398683	-3.1441344224	 1.3013671131	-0.393068
C	 0.0927080026	-4.464924614	 0.8941344458	 0.076163
N	 0.0345910722	-4.8386280063	-0.3177385332	-0.428648
N	 0.0653832491	-0.7928765853	 1.0818181055	-0.408314
H	 0.898589695	 1.8824632724	 0.6291436568	 0.137235
H	-0.0618115326	 2.0265968659	-0.8560281908	 0.124076
H	-0.8613276393	 1.8649286836	 0.7199093063	 0.137243
H	-0.1047490784	-0.5119103224	-2.2040195381	 0.141806
H	 0.1489291778	-2.9630670813	 2.2909928464	 0.273577
H	 0.1441672883	-5.125986277	 1.7675152307	 0.097154
H	 0.0426504515	-5.8551280952	-0.3654073954	 0.228316
