18
gdb 13485	3.24185	1.64342	1.15962	3.9538	67.56	-0.2703	0.0103	0.2806	1038.9679	0.153056	-384.976592	-384.968209	-384.967264	-385.009564	30.397	
C	 0.0284360298	 1.6010426395	 0.134577473	-0.393778
C	 0.0243874799	 0.0689007744	 0.0514514319	 0.013776
C	 0.7373848625	-0.5636669605	 1.2546991782	-0.398585
C	-1.4080666359	-0.4661749021	-0.0657226944	-0.176687
C	-2.1957421242	-0.2300351854	-1.3704707609	-0.109043
O	-2.2829268127	-1.6751784785	-1.5932918735	-0.238542
C	-1.5644213019	-1.9416719321	-0.4547557856	 0.457154
O	-1.2282142939	-3.0056835257	-0.0421724104	-0.327018
H	 1.0528855252	 1.9833165485	 0.1835135908	 0.121093
H	-0.456368893	 2.0593012428	-0.734052573	 0.113328
H	-0.4981406342	 1.9447097426	 1.0326840788	 0.117367
H	 0.5628879943	-0.2265386573	-0.8602880493	 0.084205
H	 0.2570370763	-0.2620708225	 2.1931759336	 0.113357
H	 0.7128312623	-1.6548784404	 1.2001431182	 0.149681
H	 1.7819916491	-0.2400983714	 1.2978679101	 0.113842
H	-1.9793182022	-0.2248054813	 0.8370764871	 0.109572
H	-3.191386533	 0.2075184061	-1.2775522379	 0.125814
H	-1.6399960483	 0.2474760931	-2.1810960666	 0.124466
