16
gdb 13099	3.73855	1.44956	1.17542	3.5846	62.17	-0.2702	0.0013	0.2715	1012.6171	0.129457	-420.883123	-420.875098	-420.874153	-420.916769	28.503	
O	 0.0225667658	 0.911297738	-0.8694074193	-0.428273
C	-0.0602942843	-0.1977213496	-0.0259597205	 0.149809
C	 0.0145773573	-0.0360433805	 1.5193302164	-0.266891
C	-1.1008919105	-1.11476332	 1.6375647294	-0.246793
C	-1.4506987681	-0.8862225959	 0.1527581843	 0.07336
O	-2.4875647938	 0.0999130559	 0.0551399858	-0.209032
C	-3.1546413565	 0.1914795415	-1.1152867137	 0.170282
O	-3.9526733551	 1.052435342	-1.3314840351	-0.274141
H	-0.6378923667	 1.5509416899	-0.5776430024	 0.294531
H	 0.67696045	-0.9213987338	-0.3859646763	 0.099693
H	 0.9744959133	-0.2283544895	 2.00156093	 0.10941
H	-0.3468896154	 0.9487987009	 1.8283896627	 0.115443
H	-0.7055568065	-2.1194308998	 1.8039126962	 0.115849
H	-1.9117216696	-0.9270393481	 2.3422490917	 0.125579
H	-1.6958910328	-1.7478362005	-0.4757801293	 0.08547
H	-2.892320877	-0.6161640505	-1.8239861	 0.085704
