17
gdb 96821	2.86465	1.14594	0.96257	0.8307	78.22	-0.2422	0.0118	0.254	1271.4366	0.13428	-417.954009	-417.944391	-417.943447	-417.988982	34.088	
C	 0.1972474846	 1.3729842828	-0.2182942277	-0.339487
N	 0.3232385024	-0.0776983262	-0.1655142709	-0.332106
C	 0.5847281538	-0.6346353736	 0.9205771698	 0.440985
O	 0.7951462749	-0.0991987976	 2.1877840023	-0.269823
C	 0.842017885	-1.4328318689	 2.8005114895	-0.084725
C	-0.2682186043	-1.6717677646	 3.6982041122	 0.367927
C	-1.1957618265	-1.8825342207	 4.4325399237	-0.455761
C	 0.7508838551	-2.0814911285	 1.3750838968	-0.138599
N	-0.2602935422	-3.0809717446	 1.1530584588	-0.508897
H	 1.0242324641	 1.7852206136	-0.8075738125	 0.129867
H	-0.7285171711	 1.630640598	-0.7430072732	 0.126896
H	 0.1952907449	 1.8558061436	 0.7657218576	 0.129139
H	 1.7992902546	-1.5737526724	 3.3094540084	 0.120873
H	-2.008391076	-2.0656301399	 5.0919074894	 0.209841
H	 1.720802889	-2.4836223076	 1.0683753656	 0.11813
H	-1.1834978305	-2.7001104782	 1.3373124408	 0.240257
H	-0.2458652878	-3.3742075852	 0.1816442495	 0.245482
