15
gdb 29409	6.31984	0.83376	0.76575	3.9929	70.48	-0.2286	-0.0124	0.2162	1437.2127	0.111253	-457.811716	-457.803272	-457.802328	-457.846129	29.51	
C	 0.1792464727	 1.4633066377	 0.0059967076	-0.499621
C	-0.0727694131	-0.0116235049	-0.0122355991	 0.268247
C	-0.370511385	-0.7822878727	-1.0906437122	-0.1048
O	-0.5410013994	-2.0927510441	-0.7247851704	-0.175459
C	-0.3358567673	-2.1345336317	 0.6117469644	 0.435999
O	-0.5181394923	-3.3358459709	 1.2136428944	-0.215174
C	 0.3244540935	-4.3595360572	 0.8505673162	 0.162506
O	 0.1884639167	-5.4577670481	 1.280564183	-0.243238
C	-0.0467630733	-0.9111103693	 1.1148123673	-0.406144
H	 1.1794732921	 1.6938200708	 0.389204952	 0.134755
H	 0.0995788973	 1.8884030123	-0.9980998122	 0.129325
H	-0.5399993787	 1.9833717794	 0.648295836	 0.136619
H	-0.4917771349	-0.5738684109	-2.1403809631	 0.14116
H	 1.1025909511	-4.026277268	 0.1441294436	 0.110493
H	 0.1554768106	-0.6759183324	 2.1471299324	 0.125332
