19
gdb 38231	3.06633	2.08678	1.72331	1.5101	79.07	-0.2382	0.0536	0.2918	858.8113	0.161801	-385.750686	-385.744641	-385.743697	-385.780467	27.547	
C	 0.0181165751	 1.7708908374	-0.0351179509	-0.241601
C	 1.4980296826	 1.4878366142	 0.0835862609	-0.055447
C	 1.0492691247	 0.2655510417	 1.0454168708	-0.321785
C	-0.0428670083	 0.1998308485	-0.0987289678	 0.412847
O	-1.3036748397	-0.2442461843	-0.5758833196	-0.359709
C	-1.1873093617	 0.3233595139	-1.9346338315	-0.121834
C	 0.3500107238	 0.3877849613	-2.2835464547	-0.141559
C	 1.6784947073	 0.8563547329	-1.3481153979	-0.075871
C	 0.9201588567	-0.3751835764	-1.187715887	-0.041916
H	-0.4616578228	 2.0908996741	 0.8934759498	 0.089842
H	-0.3090030602	 2.3873552826	-0.8686267515	 0.100825
H	 2.2208379586	 2.226585648	 0.4284845963	 0.070231
H	 1.7081346927	-0.5986470055	 1.1535341414	 0.102461
H	 0.7257280497	 0.6351587096	 2.0200105068	 0.108316
H	-1.6518009196	-0.3948465903	-2.6181323371	 0.114822
H	-1.7376799179	 1.2673856147	-1.98107517	 0.111617
H	 0.6218224353	 0.2135120049	-3.3210576375	 0.086657
H	 2.6045300361	 0.926782244	-1.9108652397	 0.083451
H	 1.2324948977	-1.4124250011	-1.1164998808	 0.078652
