18
gdb 123916	3.4323	1.54931	1.11289	1.8066	77.99	-0.1826	0.0354	0.218	1070.0302	0.152445	-398.162587	-398.155149	-398.154205	-398.194275	29.402	
C	-0.0361430741	 1.5225299648	 0.0285272966	-0.204712
C	 1.3831964971	 2.1172513293	 0.0627783824	-0.14943
N	 2.2192312942	 1.576761293	 1.1340522256	-0.392408
C	 1.931480875	 0.2980389913	 1.5772367666	 0.37287
N	 2.5768483849	-0.2992156383	 2.5748933555	-0.351715
N	 1.9755291256	-1.5177829881	 2.6505380577	-0.19331
C	 0.9952069712	-1.6901560263	 1.7329334354	-0.161026
C	 0.9231788489	-0.521609919	 1.0046112163	 0.175989
C	 0.010356041	-0.0161639445	-0.0712534112	-0.33825
H	-0.5716552421	 1.8102958963	 0.9411344243	 0.103015
H	-0.5808090102	 1.9471910524	-0.8212009217	 0.093868
H	 1.8650710065	 1.9267432833	-0.908464207	 0.1032
H	 1.3345726022	 3.2038796999	 0.1781723771	 0.102266
H	 2.522852773	 2.2207169195	 1.8461884816	 0.240252
H	 2.305367967	-2.1762504063	 3.3327618328	 0.268409
H	 0.4262806979	-2.6056798924	 1.6766720848	 0.124255
H	-0.9973394363	-0.4348321727	 0.0253491572	 0.101245
H	 0.3686646184	-0.3022147022	-1.070354344	 0.105481
