18
gdb 127056	5.79631	0.74042	0.66475	3.6674	74.76	-0.2477	0.0034	0.2511	1659.3462	0.147936	-435.258452	-435.249437	-435.248493	-435.294253	31.255	
C	-0.0110995585	 1.4993720779	-0.0090367519	-0.387791
C	 0.0113223533	-0.0193783151	-0.0141192367	-0.022884
O	 0.677722022	-0.4552939809	-1.183216951	-0.249727
C	 0.7549721875	-1.8584316283	-1.2881306324	-0.159535
C	 1.4747885801	-2.1958694306	-2.5525611006	 0.289182
C	 2.0007548602	-1.3530003309	-3.5009399613	-0.149734
N	 2.530612897	-2.1974944492	-4.4182764427	-0.155046
N	 2.3508996558	-3.4839222843	-4.0718283264	-0.117276
N	 1.709276832	-3.482693809	-2.9380615533	-0.258832
H	 1.0072777167	 1.8981430962	-0.0178024779	 0.126538
H	-0.5364850538	 1.8782732612	-0.8902803141	 0.126542
H	-0.5211897963	 1.8695498135	 0.8850878995	 0.118142
H	 0.5284452059	-0.4034060053	 0.8811727096	 0.090451
H	-1.014734227	-0.4232564793	 0.0089637565	 0.090448
H	 1.2867051849	-2.2906215304	-0.4235411857	 0.1108
H	-0.2514582724	-2.3102168938	-1.2939566527	 0.110807
H	 2.0348774141	-0.2816281275	-3.5852910025	 0.156358
H	 3.0130853985	-1.9814486643	-5.2756915764	 0.281557
