14
gdb 4672	7.02794	1.29821	1.09723	3.6462	69.43	-0.1992	-0.0278	0.1714	1008.3688	0.108769	-378.771755	-378.764646	-378.763701	-378.802916	26.701	
N	 0.0113351301	 1.430551925	 0.1541446523	-0.600441
C	-0.0013177455	 0.0368359753	 0.0452146353	 0.243982
C	-1.0845266271	-0.7988582827	 0.0261507511	-0.173133
N	-0.6076569737	-2.1157684063	-0.0024640486	-0.032243
C	-1.3905431368	-3.2573487385	-0.0296334775	 0.176752
O	-0.9569280795	-4.3813132604	-0.0654105368	-0.303158
C	 0.7769269712	-2.0937774462	-0.0083459402	-0.048417
C	 1.1788129085	-0.7928311192	 0.0237462862	-0.228197
H	 0.7861449368	 1.8602897389	-0.3331587561	 0.247364
H	-0.855321602	 1.8671912367	-0.1294982366	 0.245029
H	-2.1430317136	-0.5975259792	 0.0360223561	 0.121757
H	-2.4679327409	-3.0115185165	-0.0142264024	 0.091384
H	 1.3227635483	-3.0212052991	-0.0341386396	 0.15373
H	 2.2001275943	-0.4419250577	 0.0387312869	 0.105592
