21
gdb 103127	2.21429	1.09903	1.03372	2.9043	81.24	-0.2392	-0.0183	0.2209	1333.0508	0.179427	-424.225316	-424.21485	-424.213906	-424.260794	38.085	
C	 0.2791776979	 1.537718885	 0.2406603348	-0.389018
C	-0.1276182693	 0.0995423893	-0.1103836199	-0.242614
C	 0.6492212115	-0.4771782153	-1.2899334421	 0.279883
C	 0.4423864828	 0.2364121923	-2.6152677558	-0.456598
C	 1.9857312645	-1.0806324427	-1.0446012891	 0.047877
O	 2.4642309449	-1.0566685946	 0.2658289359	-0.415225
C	 0.8204046115	-2.0136766568	-1.4155328231	-0.216459
C	 0.2751456185	-2.9686156406	-0.4298299618	 0.145674
O	-0.1983378028	-4.0407431759	-0.7323286218	-0.280049
H	 1.3450327281	 1.5881717288	 0.4821968681	 0.133816
H	 0.0803721277	 2.2366970134	-0.5771701246	 0.115978
H	-0.2808949064	 1.8876532042	 1.1131066351	 0.114837
H	 0.0231659246	-0.5215347296	 0.7739376908	 0.11654
H	-1.1988195331	 0.0608947354	-0.3452342377	 0.099999
H	 0.7541589941	 1.2837931022	-2.5552330401	 0.127675
H	 1.0192179365	-0.2344411164	-3.4167035377	 0.118354
H	-0.61347813	 0.2137106742	-2.9066530587	 0.126108
H	 2.7501206366	-0.9571091811	-1.8123207265	 0.095529
H	 3.0496163966	-1.8111422639	 0.3916465226	 0.296851
H	 0.8135510965	-2.4080192849	-2.4269752133	 0.099762
H	 0.3389411092	-2.6590727832	 0.6334077451	 0.081079
