20
gdb 106250	2.4571	1.3486	1.08499	3.0513	81.62	-0.2539	0.023	0.2769	1223.6338	0.169747	-403.136137	-403.126897	-403.125953	-403.170171	34.54	
C	-0.0155081275	 1.506134079	-0.1255057338	-0.378401
C	-0.0373319215	 0.0005788449	 0.1739050895	-0.289729
C	-1.4044466482	-0.5891278148	 0.0432868693	 0.452228
O	-2.4028128821	-0.1600883945	 1.0258023245	-0.307609
C	-2.8391644251	-1.4792690123	 1.1592761054	 0.443269
N	-3.6564149408	-1.9782501517	 1.9685821097	-0.560875
C	-1.9512355126	-2.0071452978	 0.0862434135	-0.300034
C	-2.1059102708	-1.1171489509	-1.1627812387	-0.070743
C	-3.4285212562	-0.6159867812	-1.6959125374	-0.419936
H	 0.9916180269	 1.9121469819	 0.0046050183	 0.116958
H	-0.3339047488	 1.708974973	-1.1528941151	 0.12017
H	-0.68899389	 2.0431309185	 0.5483817391	 0.138897
H	 0.6316499338	-0.5325691868	-0.511650014	 0.108608
H	 0.3323306493	-0.1843785087	 1.1894416246	 0.115969
H	-4.0361013372	-1.2637686655	 2.5923283848	 0.227223
H	-1.462017836	-2.970448727	 0.0737444991	 0.116857
H	-1.4005175104	-1.4343210802	-1.9304423099	 0.098235
H	-4.0623992308	-0.2399692402	-0.8905013044	 0.142495
H	-3.2701248251	 0.2000752076	-2.4089431005	 0.120279
H	-3.9675123971	-1.4157236332	-2.2130943239	 0.126141
