25
gdb 80542	2.37559	1.4152	1.19312	0.1532	92.6	-0.2769	0.0909	0.3678	1236.5484	0.230438	-352.354513	-352.345286	-352.344342	-352.387558	37.031	
C	-0.1358857262	 1.6565665586	-0.0648681751	-0.443896
C	 0.0093146921	 0.1394531383	-0.0154655035	 0.060442
C	 1.0950800677	-0.6183106135	-0.8398958945	-0.042653
C	 2.4125925376	-0.0435244512	-0.2752745838	-0.245731
C	 2.1098527899	-0.1523428702	 1.2632746364	 0.06463
C	 2.3669777723	 1.0952626653	 2.1094778621	-0.432818
C	 0.6526682013	-0.666888008	 1.1636512569	-0.060336
C	 0.8528315336	-1.8260983027	 0.1247788035	 0.058251
C	-0.3051108284	-2.7737126017	-0.1661977114	-0.44348
H	 0.8166280635	 2.1897900573	-0.0590849089	 0.119282
H	-0.6636744108	 1.9495568965	-0.979980357	 0.109105
H	-0.727323076	 2.0236478142	 0.7817508919	 0.112955
H	-0.9730392282	-0.287805926	-0.2271434423	 0.068328
H	 1.0199017991	-0.7248315021	-1.9245265849	 0.047232
H	 3.2826640731	-0.6361176122	-0.5735347188	 0.089387
H	 2.5950192716	 0.9879792104	-0.5928487368	 0.0925
H	 2.7230896051	-0.9546889631	 1.6915101795	 0.066909
H	 1.7844832049	 1.9607077839	 1.7873321243	 0.117997
H	 2.1211210303	 0.9063513708	 3.1606808134	 0.108841
H	 3.4257960789	 1.3753832243	 2.067237366	 0.109955
H	 0.1179565286	-0.826963174	 2.1032750736	 0.044491
H	 1.7496398415	-2.4291797988	 0.3129224842	 0.054009
H	-1.2487967475	-2.2639773442	-0.3770049772	 0.117942
H	-0.0735184566	-3.4031407401	-1.033004455	 0.113457
H	-0.4768708574	-3.4418910019	 0.6852617274	 0.113201
