19
gdb 113231	3.11302	1.09411	0.98829	1.6541	72.86	-0.2275	0.0672	0.2947	1271.8619	0.156743	-460.101616	-460.0923	-460.091355	-460.135875	34.296	
C	-0.5151349745	 0.9410534932	-0.2773407263	-0.230585
O	 0.5314589929	 0.0398272953	 0.031979036	-0.227582
C	 1.0079481582	-0.6372335218	-1.0776934691	 0.051162
C	 1.5951840693	-1.9962531089	-0.8204118553	-0.378851
C	 0.2876577997	-1.8953906206	-1.559286456	 0.3677
O	-0.8393116155	-2.3279318002	-0.8602135249	-0.464356
C	 0.2268583328	-2.1774582983	-3.0271549658	 0.008301
C	-0.4682126196	-3.3566936983	-3.5550458098	-0.188534
O	-1.0894749475	-2.0600125238	-3.5912359037	-0.255359
H	-0.1895526565	 1.7058245898	-0.9987598635	 0.104652
H	-1.3891786722	 0.4201166283	-0.688814807	 0.108258
H	-0.79829162	 1.4331307511	 0.6558441139	 0.129015
H	 1.4742722036	-0.004801049	-1.8382122902	 0.079909
H	 2.4911288624	-2.3031385998	-1.3489658647	 0.114963
H	 1.5123674958	-2.3470028406	 0.2021647472	 0.142406
H	-1.5955500644	-2.0699842278	-1.4055853883	 0.292235
H	 1.0173837458	-1.7266920638	-3.6277953342	 0.096809
H	-0.1880909115	-3.75906895	-4.526622796	 0.1202
H	-0.9153394389	-4.0608410949	-2.8578854323	 0.129657
