22
gdb 83736	2.87433	1.33832	1.07925	1.3804	86.55	-0.2216	0.0891	0.3106	1224.5303	0.19555	-367.19061	-367.182218	-367.181273	-367.223208	33.587	
C	-0.0105096581	 1.520302165	-0.0552081158	-0.415648
C	-0.017698032	 0.0118677318	-0.1060288176	 0.010233
C	 0.7271042598	-0.7479871664	-1.1476219351	-0.120173
N	 1.2493342006	-0.6545970714	 0.2342187711	-0.120775
C	 1.0873656117	-1.9945967783	 0.8355503677	-0.152021
C	 0.1377001844	-2.8228432923	-0.0662698634	-0.336626
C	 0.3040819496	-2.1638359503	-1.4348293626	 0.408393
C	-0.5403420231	-2.5292324321	-2.6254952292	-0.324679
C	 0.9231768071	-2.9028083086	-2.5966831539	-0.317961
H	 0.9361878627	 1.9119621911	-0.4372383442	 0.124325
H	-0.827044382	 1.9363862602	-0.6556716625	 0.112209
H	-0.1301919109	 1.8776939013	 0.973428897	 0.118354
H	-0.9336630293	-0.4499312538	 0.2626281132	 0.077005
H	 1.2776486453	-0.2097410576	-1.9168414245	 0.07922
H	 2.0809786943	-2.4542998623	 0.8678854883	 0.106795
H	 0.7297626994	-1.9056284359	 1.8662799562	 0.101395
H	 0.3957676442	-3.8851591721	-0.0750261315	 0.100041
H	-0.899758081	-2.7489618838	 0.2771453709	 0.105895
H	-1.2734314029	-3.3209742238	-2.5081581264	 0.110352
H	-0.8511819316	-1.7346498096	-3.2960509167	 0.11229
H	 1.6019250934	-2.3597223454	-3.2469273095	 0.111693
H	 1.1817776184	-3.9474082556	-2.4564615415	 0.109684
