19
gdb 92685	2.45927	1.46341	1.10576	3.1328	78.8	-0.2423	-0.0525	0.1897	1155.7258	0.159077	-423.071194	-423.062339	-423.061395	-423.104672	33.484	
C	 0.0471864055	 1.5133613009	 0.0746734983	-0.477412
C	 0.0313645044	 0.0112351279	 0.0105602208	 0.209522
C	 0.0148729303	-0.6848292699	-1.1397633013	-0.15242
C	 0.015924937	-2.1860786913	-1.2332586367	-0.277915
C	 0.5654011266	-2.8457850499	 0.0404398122	 0.099061
O	 1.9832634378	-2.7634629235	 0.1018872385	-0.435015
C	-0.0941373943	-2.2254113357	 1.2777430249	-0.324363
C	 0.0251209428	-0.7058758895	 1.3172508949	 0.309441
O	 0.0823798623	-0.0977744799	 2.3681244727	-0.318628
H	 0.9230682684	 1.8699141222	 0.6258830783	 0.14174
H	 0.0547063322	 1.953241245	-0.9256716835	 0.11416
H	-0.8255244293	 1.8875263808	 0.6198146037	 0.14108
H	-0.0033165171	-0.1382335963	-2.0815729909	 0.100836
H	-1.0084326444	-2.5397023334	-1.4249096138	 0.120209
H	 0.6144458804	-2.510360489	-2.0915337991	 0.120998
H	 0.3554329248	-3.9195533037	 0.0142161606	 0.092539
H	 2.2313044604	-1.832413147	 0.0716625705	 0.283082
H	-1.1673703847	-2.4650120309	 1.2744086952	 0.122387
H	 0.3296598367	-2.6312274268	 2.1991041245	 0.130699
