17
gdb 108731	2.9518	1.25464	0.94354	5.3817	76.29	-0.232	-0.0422	0.1898	1217.4618	0.136062	-421.840191	-421.832054	-421.83111	-421.873165	30.564	
O	 0.0276522181	 1.3845020376	-0.077780928	-0.407988
C	-0.0246305382	-0.0221869559	 0.0213085717	-0.177562
C	-1.4434479631	-0.4805308339	 0.0454625946	 0.318497
C	-2.5490773803	 0.2814797221	 0.0039302252	-0.316187
C	-3.7660225997	-0.570085137	 0.0571046536	 0.408935
O	-4.9179724243	-0.2063350756	 0.1216897419	-0.342894
C	-3.2821386103	-2.0096970592	 0.0426239333	-0.158455
C	-2.4899966959	-2.4321060632	-1.1823638623	-0.279889
C	-1.7790761137	-1.9424499138	 0.0624571845	-0.144636
H	 0.9488131647	 1.6571320333	-0.0428239948	 0.294644
H	 0.4882619196	-0.5155129408	-0.8238812683	 0.10997
H	 0.476768894	-0.3875072272	 0.9355921821	 0.10756
H	-2.580523384	 1.3585132581	-0.0735829725	 0.127418
H	-3.8513187034	-2.7572180176	 0.579399468	 0.110667
H	-2.4627200517	-3.4954676877	-1.3981227035	 0.122899
H	-2.4935417876	-1.7865516998	-2.0542769008	 0.129574
H	-1.1724511044	-2.6348653293	 0.6352014953	 0.097445
