14
gdb 131397	3.23533	1.31235	0.99357	2.4412	64.35	-0.2395	-0.014	0.2255	1123.6651	0.102387	-469.977898	-469.970312	-469.969368	-470.010941	27.526	
O	 0.5321656698	 1.3012110288	 0.0051864976	-0.422704
C	 0.2182966778	-0.0054923641	 0.0200622137	 0.302823
N	 0.2846011131	-0.7896188626	-1.0487376845	-0.303429
N	-0.1148093293	-1.9688497828	-0.5608831519	-0.084425
N	-0.4322390557	-2.002685582	 0.7179367736	-0.270424
C	-0.2270471047	-0.7482919802	 1.1345603252	 0.269387
C	-0.4340379934	-0.2920525495	 2.520646513	-0.045622
C	-1.1337843128	-1.1090380859	 3.5217538159	-0.17673
O	 0.2844607481	-0.979459555	 3.5607260301	-0.2297
H	 0.8053776371	 1.5314719117	-0.8913990342	 0.311943
H	-0.1661555635	-2.7880316401	-1.1430501534	 0.296648
H	-0.4414369425	 0.7906016854	 2.6326359477	 0.106407
H	-1.6765460169	-0.6167984577	 4.3281418376	 0.113921
H	-1.5047561671	-2.0888493961	 3.2281949195	 0.131904
