23
gdb 118475	2.13199	1.05411	0.78629	2.6514	78.8	-0.2483	0.067	0.3153	1549.659	0.203253	-462.554794	-462.54363	-462.542685	-462.591895	40.13	
C	-0.5671642657	 1.4803720862	 1.1595422943	-0.384482
C	-0.5921804074	-0.035972941	 1.2552472824	-0.042218
O	-1.1575603623	-0.5489126284	 0.0598908657	-0.269859
C	-1.2452270153	-1.9723350941	-0.0146071219	 0.067993
C	-2.5422832321	-2.4554697345	 0.6335680722	-0.097756
O	-3.6788877817	-2.0309356837	-0.11286749	-0.430594
C	-1.1852481071	-2.3111709862	-1.5269929615	 0.14108
C	 0.2483293819	-2.4126052447	-2.0262690135	-0.393768
O	-1.8412126721	-3.532827845	-1.8257587638	-0.443356
H	-0.1208821581	 1.9113700491	 2.0605934924	 0.118251
H	 0.0184301058	 1.7999384847	 0.2930210101	 0.129225
H	-1.5810269905	 1.8768402014	 1.0521791336	 0.123464
H	 0.4272244245	-0.4337492364	 1.3838001411	 0.093866
H	-1.1746010551	-0.3524768247	 2.1345090185	 0.091159
H	-0.392342174	-2.4311156942	 0.5102764269	 0.065842
H	-2.5648890935	-3.5477132062	 0.646226551	 0.123439
H	-2.6000185511	-2.1045848982	 1.6744502965	 0.093828
H	-3.5730039592	-1.0802394251	-0.2413124886	 0.290945
H	-1.6815367894	-1.4747258116	-2.0402834578	 0.071012
H	 0.7511546874	-3.2687997531	-1.564420275	 0.118683
H	 0.2681359446	-2.5501788429	-3.1104177492	 0.1209
H	 0.7999647047	-1.5017957765	-1.7766626808	 0.11928
H	-2.7814161145	-3.3728072451	-1.6737564426	 0.293065
