15
gdb 127960	2.66008	1.60199	1.0062	1.3589	76.47	-0.2371	-0.0372	0.1998	1115.3505	0.11346	-446.250608	-446.24236	-446.241416	-446.283894	29.887	
C	-0.2583133414	 1.4138965691	 0.1674360488	-0.349328
N	-0.2522003749	-0.0366698663	 0.1540647622	-0.253574
C	 0.5824362847	-0.6489205537	 0.8877332631	 0.405801
N	 1.5202159039	-0.046749232	 1.7278030566	-0.334268
N	 2.4398528355	-0.6375613045	 2.5495236522	-0.078746
N	 2.4958202762	-1.8866955805	 2.5825759073	-0.072635
N	 1.6356332412	-2.6012533018	 1.7965792396	-0.31788
C	 0.647476162	-2.1385079825	 0.9263318242	 0.350325
N	-0.1270836384	-2.8650243913	 0.2295448161	-0.487027
H	 0.7026050638	 1.8407515379	-0.1620222622	 0.119094
H	-1.0298796266	 1.7758681668	-0.5149440323	 0.140674
H	-0.4804017219	 1.8235204284	 1.1660167589	 0.119043
H	 1.5604626233	 0.9578259542	 1.7825179408	 0.276146
H	 1.764150787	-3.5965070582	 1.9014697631	 0.269505
H	 0.0535624154	-3.8602430054	 0.3777668716	 0.212871
