19
gdb 91580	2.96653	1.13388	0.961	3.8788	76.63	-0.2631	0.0042	0.2673	1274.5462	0.157907	-423.021005	-423.012188	-423.011244	-423.054853	32.711	
C	-0.1484631646	 1.5924155024	-0.1604911101	-0.418892
C	 0.0510831216	 0.083015032	-0.1515045066	-0.037869
C	 1.2780202167	-0.5525239272	-0.9023283099	-0.251077
C	 1.6737143813	-1.2873892515	 0.3851892095	-0.126662
C	 1.9624731799	-0.2808338506	 1.476162671	-0.340424
C	 0.5389873125	-0.607299471	 1.1274277094	 0.421935
O	-0.346698427	-1.1866616664	 2.0458207926	-0.230207
C	-0.6093957688	-0.4962767285	 3.1809559933	 0.14664
O	-1.3843563968	-0.885470149	 4.0003077945	-0.270394
H	 0.7530359339	 2.1218850368	 0.165251473	 0.116286
H	-0.3948079429	 1.947126601	-1.166851902	 0.122877
H	-0.9695198145	 1.8868369699	 0.502709173	 0.122179
H	-0.8643816942	-0.417696759	-0.4813662123	 0.094769
H	 0.9808260524	-1.2117190537	-1.7197050798	 0.112654
H	 2.0224058028	 0.1589928981	-1.2742400323	 0.101398
H	 2.0158909699	-2.3114031981	 0.45919506	 0.106701
H	 2.3045814414	-0.7174873139	 2.4091884604	 0.126823
H	 2.4015790758	 0.686904071	 1.2455868432	 0.115145
H	-0.0271003395	 0.4402892978	 3.252239703	 0.088119
