18
gdb 37379	2.89197	2.06539	1.85402	1.1163	72.22	-0.2351	0.0718	0.3069	832.9637	0.152281	-401.923518	-401.917654	-401.91671	-401.95332	25.721	
C	-0.0062213923	 1.5562307481	 0.0203024665	-0.231651
C	 1.4799544703	 1.8868721663	 0.0049403965	-0.037723
C	 2.3535733143	 1.0478865156	 0.8749970246	-0.049294
C	 1.7321328204	 0.093934489	 1.8526440153	 0.035854
O	 0.4982510407	 0.4799300652	 2.4910782145	-0.256401
C	 0.4452908225	-0.4719792597	 1.4287447795	 0.044504
C	 0.0207254787	 0.0157165115	 0.0463322426	-0.103776
C	 1.2273862067	-0.2769883154	-0.884703341	-0.159487
N	 2.2345097004	 0.7641484868	-0.5900769685	-0.125611
H	-0.5314658959	 1.983715525	 0.8745096079	 0.128197
H	-0.4751782911	 1.9153870558	-0.9021187157	 0.099486
H	 1.7990162705	 2.888301656	-0.2683958585	 0.090596
H	 3.3350867553	 1.4310417774	 1.1384634932	 0.088505
H	 2.4069666431	-0.4646269163	 2.4971793525	 0.096584
H	 0.1545466765	-1.4773361399	 1.728087038	 0.094203
H	-0.9116131113	-0.4434981409	-0.287147928	 0.072834
H	 1.6527800748	-1.2750170621	-0.7364575839	 0.10468
H	 0.9510146664	-0.1764027024	-1.9392624256	 0.108501
