18
gdb 22658	5.05455	0.80364	0.72111	2.3312	77.1	-0.2479	-0.0264	0.2215	1502.5247	0.146725	-439.071845	-439.063015	-439.062071	-439.106136	32.331	
O	-0.1478471789	 1.3482122592	 0.0668542964	-0.394483
N	 0.0208663972	-0.0465524331	-0.0084278944	-0.223812
C	-1.1030058466	-0.640197937	-0.0293745071	 0.407942
C	-2.4849111798	-0.0242253861	-0.0241364829	-0.300319
C	-3.4404074405	-1.2336270502	 0.0054129995	-0.245581
C	-2.6318001746	-2.3878201802	-0.6454760805	-0.068416
C	-1.1982755969	-2.148099284	-0.1165437648	-0.315411
C	-3.1751990912	-3.7430064389	-0.2651229112	 0.15516
O	-3.6302368685	-4.5542503321	-1.027813692	-0.246579
H	 0.76212778	 1.6636579985	 0.0627238318	 0.307747
H	-2.6187868946	 0.6643658793	 0.8147172242	 0.133478
H	-2.6136617527	 0.5732356543	-0.9348187205	 0.13516
H	-3.6779359496	-1.4989586028	 1.0434040831	 0.109483
H	-4.386819976	-1.0518844429	-0.5082262732	 0.119425
H	-2.6591340075	-2.3024365134	-1.7359838545	 0.100602
H	-0.4171400507	-2.5868994466	-0.7397921806	 0.135547
H	-1.0989662561	-2.5844781075	 0.8883487933	 0.121644
H	-3.1319945429	-3.9465510563	 0.8335045235	 0.068411
