16
gdb 19560	4.11318	2.08693	1.88674	1.8245	68.17	-0.2297	0.	0.2297	765.2839	0.131175	-346.527503	-346.521354	-346.52041	-346.557377	25.437	
C	 0.0208053041	 1.4989911659	 0.0102633381	-0.354282
C	 1.3538532463	 0.7535441564	-0.0072719132	-0.354316
C	 0.0651694973	 0.0125392492	 0.0016158152	 0.451946
C	-0.5924915677	-0.994439322	 0.9760836517	-0.07713
O	-1.6962593051	-1.0846695035	 0.0132570444	-0.283258
C	-0.6120742056	-0.9837646213	-0.9704755876	-0.077198
C	 0.1828726759	-2.2723095036	-0.679674674	-0.075231
C	 0.1967953086	-2.2793257378	 0.6552503453	-0.075345
H	-0.2678383017	 2.0043435794	 0.9264978275	 0.117175
H	-0.286194248	 2.0143707012	-0.8943444058	 0.117174
H	 1.9353268241	 0.772329974	-0.9236705517	 0.114522
H	 1.9536619521	 0.7622834426	 0.8973842195	 0.114517
H	-0.8899280368	-0.7595787835	 1.997264481	 0.080779
H	-0.9299600147	-0.7377187947	-1.9828214289	 0.080759
H	 0.6136375355	-2.9529771709	-1.398677211	 0.109946
H	 0.6423083656	-2.9675114714	 1.3579243695	 0.109943
