13
gdb 64551	4.43114	1.10521	1.07154	4.1538	61.26	-0.2793	-0.0718	0.2075	1087.1838	0.086903	-493.689829	-493.682233	-493.681288	-493.722229	27.932	
O	-0.1153225296	 1.3676931061	 0.031154656	-0.451824
C	-0.079071624	-0.0010617935	 0.0200141049	 0.34178
C	 1.0254702856	-0.5713609583	-0.8047353186	 0.105225
O	 1.7785353855	 0.1525254581	-1.4110309912	-0.269892
C	-0.4958210347	-0.8161965584	 1.2127111345	 0.013998
O	-1.4966839706	-0.0931321582	 1.9592006648	-0.249184
C	-2.3755138672	-0.1742585433	 0.8810142661	 0.494027
O	-3.5086065233	 0.1620002034	 0.840057675	-0.307003
C	-1.3708731809	-0.8623918321	-0.0188645105	-0.377206
H	 0.5816994169	 1.6502667974	-0.5834516788	 0.307064
H	 1.1130723252	-1.6750786453	-0.831503403	 0.109324
H	 0.0670391718	-1.5734483024	 1.7420328303	 0.143001
H	-1.5740430046	-1.6227562034	-0.7597433396	 0.14069
