18
gdb 18484	5.61474	1.21185	1.11938	0.9157	76.89	-0.2482	0.0592	0.3075	1089.5908	0.153589	-310.6046	-310.596913	-310.595968	-310.636716	29.69	
C	-0.0024796985	-1.1798808087	-0.190826432	-0.453124
C	-0.0333529346	 0.0063198145	 0.0031283122	 0.302331
C	-0.0275057604	 1.4472350629	 0.2280972692	-0.369311
C	 1.3657167103	 2.0689326901	 0.0405670645	 0.030526
C	 2.0089717888	 2.0948939012	-1.3885202798	-0.246119
C	 2.1804737803	 3.6143104672	-1.2612792091	-0.034349
C	 0.8417735596	 4.2649063102	-1.0717279107	-0.276101
C	 1.4957171924	 3.5973247656	 0.1090057362	-0.073524
H	 0.0098627032	-2.2279601959	-0.3591212988	 0.192607
H	-0.7435258912	 1.9245651391	-0.4523162088	 0.126421
H	-0.3836473552	 1.6631705864	 1.2442863823	 0.127034
H	 2.0556749524	 1.5949199022	 0.7436974594	 0.085639
H	 2.9489767709	 1.5419999002	-1.4314976855	 0.106044
H	 1.371210689	 1.7583973913	-2.2129435247	 0.099383
H	 3.051872517	 4.1764032491	-1.5735571768	 0.08522
H	 0.8476093461	 5.3497781369	-1.0386985587	 0.11098
H	-0.0449339123	 3.845275671	-1.5419039379	 0.104134
H	 1.7447493922	 4.1573274768	 1.0029350992	 0.082208
