20
gdb 95258	2.58142	1.841	1.40772	0.9616	76.61	-0.2344	0.0758	0.3102	996.2231	0.173739	-403.101719	-403.094356	-403.093412	-403.133287	29.979	
C	-0.0565760198	 1.5508842133	-0.01449142	-0.399127
C	 0.0136437833	 0.0186046116	-0.0109469697	-0.027422
C	 0.4972607091	-0.5113400715	-1.3822160635	-0.096894
O	 1.081391182	-1.8041345243	-1.3445435525	-0.265612
C	 2.0387616216	-1.9492627022	-0.3164014446	 0.086375
C	 2.9332758987	-0.7290859515	 0.0458264373	-0.200122
N	 2.2691242896	-0.5543817878	 1.3808970158	-0.161878
C	 1.479397797	-1.8287587547	 1.1056506034	-0.07637
C	 0.7959936865	-0.5279279657	 1.1774458357	-0.009939
H	 0.9415178878	 1.9907859304	-0.1131685144	 0.126188
H	-0.6698980117	 1.9166529305	-0.8452920012	 0.115142
H	-0.4953566916	 1.9275668763	 0.9147475348	 0.119624
H	-1.003453177	-0.3676796047	 0.1444656243	 0.08856
H	-0.3523684795	-0.5898590783	-2.0665114177	 0.110371
H	 1.2016191967	 0.205107927	-1.8296541478	 0.093336
H	 2.5851289337	-2.8677508737	-0.5331499395	 0.090552
H	 3.9705080182	-1.028845312	 0.2124693167	 0.114131
H	 2.9241087664	 0.1518933733	-0.5999911473	 0.106631
H	 1.3750775396	-2.624248054	 1.8356459745	 0.09081
H	 0.3169808796	-0.3052507819	 2.1288685958	 0.095644
