19
gdb 85339	1.87037	1.71101	0.91993	5.5634	81.5	-0.2136	-0.0037	0.2099	1259.563	0.161156	-419.271165	-419.262449	-419.261505	-419.304125	33.963	
C	-0.0177689948	 1.5528322788	-0.0100876307	-0.408216
C	 0.0581080001	 0.0280569949	 0.0151605385	 0.049679
C	 0.6417736578	-0.5419465034	-1.2821125911	-0.288756
C	 0.9250582749	-2.0195404012	-1.1557929409	 0.347732
N	 0.8735163652	-2.7403233745	-2.3275218814	-0.567913
C	 1.1918633701	-2.5573971836	 0.0536509892	-0.286162
C	 1.2393247975	-1.7529501016	 1.2774492271	 0.394028
O	 1.5941948928	-2.194151125	 2.3599703621	-0.398863
N	 0.8882467522	-0.4163101839	 1.1271620596	-0.34963
H	 0.9800387735	 1.9883047916	-0.1238388443	 0.126667
H	-0.6465445337	 1.8949109005	-0.837830883	 0.118994
H	-0.4531564908	 1.9365606148	 0.9186257986	 0.119483
H	-0.9665294961	-0.3705900537	 0.1166274226	 0.080338
H	-0.0571779549	-0.3618898891	-2.1066458936	 0.109401
H	 1.577482119	-0.0184809104	-1.5263241936	 0.12235
H	 1.0020259625	-2.2311714139	-3.1877660326	 0.25375
H	 1.3063907294	-3.6515950469	-2.325189708	 0.257916
H	 1.4376308124	-3.6062693148	 0.174906988	 0.085676
H	 0.7488080628	 0.0450630714	 2.0158567235	 0.233526
