19
gdb 67699	2.34519	2.00957	1.72328	1.5923	78.09	-0.2269	0.0065	0.2334	924.3453	0.161643	-385.887975	-385.880875	-385.879931	-385.918989	29.288	
C	 0.0077753296	 1.4974307987	-0.0128994085	-0.51303
C	-0.0089461692	-0.0061446957	-0.000790161	 0.345756
C	 0.6292997138	-0.902642712	-1.020980022	-0.130412
C	 1.4588897645	-1.9354667976	-0.2624928093	-0.099921
O	 1.4333566529	-1.5291996571	 1.1112590604	-0.260908
C	 0.1975241572	-0.8234480219	 1.3021565759	-0.033705
C	-0.9459850373	-1.8299451198	 1.3006743844	-0.096718
C	-1.4939934638	-1.9050336113	 0.0854054975	-0.082205
C	-0.9035864023	-0.8853867139	-0.8342668646	-0.136548
H	 0.9482247806	 1.8859227846	 0.394984111	 0.12443
H	-0.0969064275	 1.8826112126	-1.0323620514	 0.116785
H	-0.8128471406	 1.9128310003	 0.5832939133	 0.121319
H	 1.022098821	-0.4925337691	-1.9454301655	 0.088429
H	 1.0528294823	-2.9508411775	-0.368976536	 0.096266
H	 2.5027509649	-1.9446182999	-0.5903130638	 0.105385
H	 0.3058944873	-0.2308038166	 2.2133839791	 0.075974
H	-1.1359726078	-2.4945997327	 2.134569976	 0.10007
H	-2.2417608533	-2.6236872702	-0.2310015941	 0.097715
H	-1.4918826221	-0.474411951	-1.6482396415	 0.081316
