18
gdb 26254	3.8344	1.13364	0.89174	2.8909	77.67	-0.1872	0.0344	0.2216	1300.2935	0.14793	-435.290099	-435.28069	-435.279745	-435.324504	33.484	
C	 0.026720211	 1.3721106187	 0.0376765073	-0.331285
N	-0.028091936	-0.0673874022	-0.1520458573	-0.169747
C	 1.1634652476	-0.8204475926	 0.1950526988	-0.339105
C	-1.2556295935	-0.6583858372	-0.0536318619	 0.527252
N	-2.4163988876	-0.0641469665	-0.0094162178	-0.383654
C	-3.3228931829	-1.1186545318	 0.002613149	-0.115919
C	-2.6838288669	-2.3057757144	-0.018244751	 0.251351
N	-3.1024676838	-3.628414646	-0.0032153024	-0.604405
O	-1.3028704214	-2.0083643416	-0.0516010897	-0.236147
H	 0.9066187779	 1.7669085483	-0.479238823	 0.119421
H	-0.8739471666	 1.8212721137	-0.3797131093	 0.167313
H	 0.0914153942	 1.6507295322	 1.1005974196	 0.115511
H	 1.3602497685	-0.8237436395	 1.2790805762	 0.1163
H	 1.0641933404	-1.8519845785	-0.1419297083	 0.15034
H	 2.0257834903	-0.3705614935	-0.305874015	 0.126433
H	-4.3882127683	-0.9521329666	 0.0323100637	 0.117594
H	-2.7978992024	-4.1342759277	 0.8226231033	 0.244108
H	-2.8059004504	-4.1486891448	-0.8228022721	 0.244637
