25
gdb 109941	2.11284	1.351	1.00466	0.178	92.83	-0.2578	0.0805	0.3383	1352.5092	0.228537	-352.341146	-352.331254	-352.330309	-352.375548	38.428	
C	-0.1667893959	 1.7690795654	-0.450671502	-0.385168
C	-0.2350575777	 0.2376451871	-0.4154222618	-0.20164
C	 0.7919617363	-0.4306128119	-1.3225157828	-0.030217
C	 2.3131729153	-0.4891740047	-0.9236147288	 0.010172
C	 2.6198708662	-0.4130392144	 0.5698053634	-0.399963
C	 2.360264325	-1.9453837218	-1.4846469787	-0.315409
C	 0.8281896443	-1.962826939	-1.4600327838	 0.367695
C	-0.0131398412	-2.9452632189	-0.6933641526	-0.317764
C	-0.1094780102	-2.8644917095	-2.2012430975	-0.337264
H	 0.8147781051	 2.1344498411	-0.1308319515	 0.118733
H	-0.3426836025	 2.1474008471	-1.4638975093	 0.113046
H	-0.9180930779	 2.2169077672	 0.2073912669	 0.109901
H	-0.1125117885	-0.1155660266	 0.6151699202	 0.09674
H	-1.2399637755	-0.0815872923	-0.7252173495	 0.090977
H	 0.7123593236	 0.0126382842	-2.3247148423	 0.063365
H	 2.9421360184	 0.2265185503	-1.4610853929	 0.060296
H	 2.0299014277	-1.1395652941	 1.1388024062	 0.120019
H	 3.677296397	-0.6350428108	 0.7515797956	 0.110309
H	 2.4146604305	 0.5805574256	 0.9821248199	 0.113254
H	 2.7670277824	-1.9950812364	-2.5000012975	 0.094004
H	 2.8768806319	-2.6855203351	-0.8650525193	 0.090906
H	 0.4811696077	-3.8082264664	-0.2574417793	 0.106006
H	-0.8492458867	-2.5723769013	-0.1103839745	 0.10926
H	-1.0086687146	-2.4310657902	-2.6296584353	 0.105817
H	 0.313400809	-3.6750583845	-2.7870802228	 0.106929
