23
gdb 121631	2.3422	0.93167	0.82944	2.2006	82.68	-0.2314	-0.0146	0.2168	1574.2571	0.201947	-425.444825	-425.433403	-425.432459	-425.482647	39.973	
C	 0.610802332	-0.6377232442	-1.3384925447	-0.387107
C	-0.4575978915	-0.5100303214	-0.2671373463	-0.041877
O	-0.7064453844	-1.7996867724	 0.2726220733	-0.234083
C	-1.6787290879	-1.8101693278	 1.291584586	-0.175389
C	-3.1407434563	-1.8556643979	 0.8132694169	 0.34021
O	-4.0136263685	-1.4647808189	 1.5543531064	-0.304146
C	-3.4275747208	-2.4658248055	-0.55624346	-0.059102
C	-3.0132063923	-3.9535238102	-0.5594608764	-0.402843
C	-4.8923764208	-2.2723598779	-0.9508379411	-0.385047
H	 0.841473931	 0.3432926309	-1.7640959536	 0.119223
H	 1.5271845904	-1.0585909533	-0.9154690539	 0.130789
H	 0.2729766091	-1.294965837	-2.1448754072	 0.127605
H	-0.1269669516	 0.1685431465	 0.5354915473	 0.09647
H	-1.3806552173	-0.08157649	-0.6906165653	 0.091996
H	-1.5085485016	-2.7194856971	 1.8825382469	 0.13299
H	-1.5768454935	-0.9549947485	 1.9742674459	 0.118257
H	-2.7778338767	-1.9538307342	-1.277447445	 0.097031
H	-3.5803591164	-4.5192564812	 0.187760736	 0.123137
H	-3.2197994762	-4.3950561408	-1.5390509823	 0.120317
H	-1.9464569645	-4.0698122774	-0.3549528066	 0.137426
H	-5.5553562549	-2.7765415895	-0.2423217119	 0.128728
H	-5.1669216986	-1.2141775251	-0.9546456218	 0.120405
H	-5.0755917088	-2.681703877	-1.9490206827	 0.105012
