18
gdb 13321	4.77739	1.16954	1.03722	2.5843	75.36	-0.2345	-0.0267	0.2078	1152.8587	0.153715	-347.833039	-347.824911	-347.823967	-347.867153	28.847	
O	 0.1769624551	-0.1579672945	-0.5112751887	-0.234964
C	 0.0297008752	 1.0193959369	-0.3141497914	 0.160428
C	 1.1500982207	 1.9969250754	 0.0131381292	-0.378753
C	 1.3056166227	 2.9967941269	-1.099617965	 0.321235
C	 0.9572063693	 4.2853616846	-1.0790453596	-0.169475
C	 1.2787007618	 4.9934015201	-2.3721419452	-0.24302
C	 1.6020982185	 3.8246250276	-3.3405144308	-0.205053
C	 1.9238927538	 2.6129510158	-2.4304039267	-0.295454
H	-0.9740532224	 1.4981738092	-0.3860735828	 0.07803
H	 0.8864663923	 2.5118426127	 0.945475897	 0.11775
H	 2.0669795507	 1.4190754809	 0.1704275819	 0.122338
H	 0.5344636602	 4.7964028552	-0.2197939911	 0.08685
H	 0.4546423265	 5.6196293344	-2.7324022426	 0.104316
H	 2.1372078274	 5.6674592159	-2.2393077495	 0.107203
H	 0.7172458106	 3.599645415	-3.9440051405	 0.10771
H	 2.4126711312	 4.0605339014	-4.0341020731	 0.099612
H	 3.0065811158	 2.4622140027	-2.3101602453	 0.106978
H	 1.5309425108	 1.6694169098	-2.826205406	 0.114266
