15
gdb 29042	2.58348	1.79938	1.28504	1.2172	76.54	-0.2488	-0.0786	0.1702	984.8087	0.113935	-413.007219	-412.999505	-412.998561	-413.039476	28.348	
C	-0.6273729402	 1.4033567629	 0.0270828158	-0.474678
C	-0.049264974	 0.0272385866	-0.0123049568	 0.32047
N	 0.1627207628	-0.5770897693	-1.1261294512	-0.241803
C	 0.5623518459	-1.8851610948	-1.2122371115	 0.088251
N	 0.1757042191	-2.9009421684	-0.5093982285	-0.239387
C	-0.5517428323	-2.7256887383	 0.644760296	 0.069007
N	-0.4926621263	-1.7771354741	 1.5150213854	-0.247616
C	 0.2883080714	-0.6429089943	 1.2923467665	 0.255337
N	 1.1229356618	-0.1101102472	 2.0872163225	-0.503862
H	 0.0635206298	 2.0640577932	 0.5611199029	 0.174097
H	-0.812421902	 1.7755959119	-0.9806923966	 0.146685
H	-1.5616237936	 1.3990604422	 0.6006091405	 0.155304
H	 1.1969572462	-2.093860981	-2.0732803915	 0.136514
H	-1.2130159997	-3.5605482207	 0.877001472	 0.13291
H	 1.234420541	-0.6957985588	 2.9194577746	 0.228769
