16
gdb 19097	3.64601	2.84448	2.78789	1.6135	65.66	-0.2371	0.0586	0.2957	630.7503	0.133677	-346.524829	-346.519915	-346.518971	-346.553438	21.811	
C	-0.0079149972	 1.5255401606	 0.1338716928	-0.225127
C	 1.5262936393	 1.4703657828	-0.0440734056	-0.071181
C	 2.1725343544	 0.7292032554	 1.1980162091	 0.090876
O	 1.1593823463	 0.3341631814	 2.1500569495	-0.287565
C	 0.7284266822	-0.6719414613	 1.2061577601	 0.090876
C	-0.0000995395	-0.0106149744	-0.0354660776	-0.071181
C	 1.3932032247	 0.0762679992	-0.7590020498	-0.056375
C	 2.083487482	-0.628183212	 0.4452674459	-0.088874
H	-0.3989021033	 1.9339490368	 1.0686091109	 0.108531
H	-0.4845054017	 2.0117722075	-0.7217584216	 0.095278
H	 2.0777459213	 2.319761143	-0.4477825438	 0.063316
H	 3.0535866901	 1.1641478553	 1.6715331357	 0.077061
H	 0.2698503357	-1.5367692892	 1.6872284192	 0.077061
H	-0.868081778	-0.5384193256	-0.4311708577	 0.063316
H	 1.5655066874	-0.1074664418	-1.8168433053	 0.063389
H	 2.8414481761	-1.4094041778	 0.4420507883	 0.070598
