20
gdb 120232	2.98179	1.03151	0.85873	3.5242	79.9	-0.2338	-0.0181	0.2157	1414.8334	0.170174	-403.122398	-403.113287	-403.112343	-403.156963	33.562	
C	 0.0041776914	 1.5841397023	 0.03037607	-0.381785
C	 0.1208596022	 0.0579881895	 0.014048229	-0.166319
C	 0.5868373198	-0.4859822759	-1.343316994	-0.198564
C	 0.7400482674	-2.0039699672	-1.3482091234	-0.118492
C	 1.3770789285	-2.7119022565	-2.560074673	-0.077496
N	 2.7504494649	-2.2056511714	-2.6543854823	-0.325966
C	 2.4471321866	-3.3495805202	-1.7190180689	-0.18738
C	 1.8586409634	-2.6854968047	-0.4924521406	 0.447423
O	 2.062947226	-2.76603489	 0.6836316821	-0.315021
H	 0.9694703209	 2.0564230899	-0.1831046679	 0.116141
H	-0.7090550957	 1.9364162332	-0.7235884989	 0.1097
H	-0.3353701166	 1.9472344787	 1.005368932	 0.112163
H	 0.8170590554	-0.2732154216	 0.7928114484	 0.124517
H	-0.850456464	-0.3871966217	 0.2687588408	 0.090288
H	-0.1322601506	-0.196233154	-2.1222435676	 0.090393
H	 1.5453192793	-0.0344154258	-1.6207928348	 0.119402
H	-0.2034881055	-2.4940724173	-1.0716040046	 0.099802
H	 0.8656672063	-3.1428892749	-3.4110020407	 0.106587
H	 3.1892556576	-2.6305908357	-3.471782621	 0.240007
H	 2.9669278226	-4.2939465668	-1.8171812447	 0.114598
