17
gdb 57007	2.58333	1.40515	1.1819	4.5148	71.59	-0.2612	0.0112	0.2724	1100.612	0.136793	-418.038725	-418.030207	-418.029263	-418.072624	30.429	
C	-0.0539644297	 1.544980622	-0.014562435	-0.39744
C	 0.0448569855	 0.0074220206	-0.0094754847	-0.162714
C	 0.7600970723	-0.4732032225	-1.1973058556	 0.286093
N	 1.3183530882	-0.8469686618	-2.1374138893	-0.324896
C	 0.6933042294	-0.5278425821	 1.2813204421	 0.095441
C	 0.8884703045	-2.0671499381	 1.3699326039	-0.213209
N	 2.3334048758	-2.2582148993	 1.5728623741	-0.250393
C	 2.8401099806	-1.1006394065	 1.5568404241	 0.130237
O	 2.0399437104	-0.0107537945	 1.3989551951	-0.231583
H	 0.9410611324	 1.988595035	 0.05462696	 0.157545
H	-0.5347611173	 1.9010322016	-0.9282717155	 0.140196
H	-0.6454139632	 1.8793816159	 0.8426453926	 0.126276
H	-0.9676896301	-0.4160040075	-0.0506044124	 0.133522
H	 0.1188251648	-0.1338559375	 2.1264520014	 0.101724
H	 0.3307741391	-2.5070123572	 2.2017001291	 0.12337
H	 0.577438562	-2.5802550405	 0.4530918149	 0.135659
H	 3.8929403454	-0.8661156075	 1.661692815	 0.150173
