16
gdb 48525	2.98739	1.54176	1.43009	3.4087	77.37	-0.2263	-0.0516	0.1746	966.4357	0.12395	-400.631274	-400.624112	-400.623168	-400.663014	27.746	
O	-0.4846994338	 0.0396686012	-0.2332025808	-0.255501
C	-0.1879147279	 1.1612662241	 0.0954291586	 0.039182
C	 1.1784584225	 1.711553123	 0.068843123	 0.234034
C	 1.8334673695	 2.6083842719	 1.0493162139	-0.059744
C	 3.1592030858	 1.9197342855	 1.4454957614	-0.272812
C	 3.5246472138	 1.3028057294	 0.1054801156	-0.100012
C	 2.4403739328	 1.3154087209	-0.7012210266	-0.031775
C	 2.287945949	 2.5949875702	-1.5244333978	-0.172089
N	 1.4585708821	 3.1327054044	-0.3361826994	-0.18976
H	-0.9452990197	 1.8940757902	 0.4553415485	 0.080218
H	 1.2587316655	 3.1588748591	 1.7894655353	 0.114913
H	 3.9547098644	 2.6101930095	 1.746784547	 0.126322
H	 2.968079266	 1.2568574381	 2.3005695547	 0.13107
H	 4.5218881927	 1.4586863798	-0.2968220341	 0.105888
H	 3.1964898826	 3.1534749001	-1.7621181609	 0.119156
H	 1.6020004746	 2.5807524628	-2.3754750884	 0.13091
