17
gdb 20875	6.74168	1.07393	0.98655	2.3162	69.87	-0.2552	0.013	0.2682	1201.74	0.144436	-360.0815	-360.073731	-360.072787	-360.114498	27.767	
C	 0.0189285952	 1.5414794376	-0.0201575822	-0.381081
C	 0.0612344413	 0.0121039342	-0.0277921484	-0.160147
C	 0.6263427815	-0.5701424234	 1.2802600003	-0.28184
C	 0.7210342633	-2.0611671896	 1.2577642574	 0.345724
N	-0.0052696278	-2.8393059257	 2.0489335793	-0.268454
N	 0.3919159472	-4.0818126105	 1.6774383966	-0.178941
C	 1.3177780851	-4.0029438946	 0.702633305	 0.014816
N	 1.553723922	-2.7416109391	 0.4076526506	-0.300267
H	 1.0211063778	 1.964492697	 0.1121161358	 0.114685
H	-0.3854550962	 1.931660512	-0.9592828264	 0.11169
H	-0.6088114585	 1.9188016059	 0.7949917523	 0.113583
H	-0.9470247182	-0.3882983459	-0.1898604237	 0.099955
H	 0.6740444074	-0.3441803114	-0.8631194466	 0.118078
H	 1.6273718401	-0.1553172983	 1.4522556964	 0.113798
H	 0.0008908906	-0.2762740523	 2.1289003897	 0.115023
H	-0.0010505077	-4.8910673385	 2.1286040025	 0.280257
H	 1.780101657	-4.8688898374	 0.2525052116	 0.143122
