18
gdb 52866	2.59164	1.09116	0.82458	4.3435	82.97	-0.2346	-0.0201	0.2145	1418.4939	0.144502	-401.91801	-401.907751	-401.906807	-401.955226	35.439	
C	-0.0952199965	 1.3217482313	-0.2325582948	-0.505867
C	-0.0913096741	-0.1311586709	-0.1477569749	 0.19917
C	-0.0872747227	-1.3348938071	-0.074188287	-0.117458
C	-0.0830244757	-2.7702890467	-0.0020502202	 0.054279
C	-0.4615289071	-3.4304872361	 1.2936622791	-0.257825
N	-1.4001262362	-3.4726485104	 0.1829361988	-0.333154
C	 0.8551484109	-3.5575859171	-0.9136034177	 0.351849
C	 1.5499579134	-2.7969403973	-2.0195608724	-0.506773
O	 1.0147403002	-4.7407318657	-0.7342086431	-0.291544
H	 0.5236604661	 1.6687448744	-1.0672829299	 0.153666
H	-1.108337403	 1.7077033215	-0.3905025434	 0.153224
H	 0.2962953678	 1.7778022143	 0.6834167865	 0.152887
H	 0.0146790439	-4.3808357135	 1.5118805865	 0.148776
H	-0.6589525313	-2.7765776044	 2.1376850616	 0.122548
H	-2.1109269324	-2.7538908582	 0.3069995168	 0.241314
H	 2.1846560822	-2.0112491769	-1.5963728633	 0.147764
H	 2.1515509097	-3.4859768009	-2.612694761	 0.139895
H	 0.8135512248	-2.2921973462	-2.6541126815	 0.147251
