19
gdb 109263	3.21014	1.42592	1.10653	1.5905	76.39	-0.2167	0.0498	0.2665	1134.9603	0.161654	-419.201442	-419.193356	-419.192411	-419.234418	30.068	
C	 0.3785540867	 1.3016865642	 0.085043228	-0.230889
O	 0.2238153037	-0.1115552589	-0.064550466	-0.252068
C	 0.5616462874	-0.5984310554	-1.2598457927	 0.447623
N	 0.9690055775	 0.0865909955	-2.2595477894	-0.360981
C	 1.3014463745	-0.8708939733	-3.3216461773	-0.189294
C	 1.1219857779	-2.2720449657	-2.684113974	 0.01906
C	 2.2985815885	-2.9453931696	-1.9265451914	-0.248568
C	 1.4465153402	-2.8099557116	-0.6353852998	-0.180612
N	 0.4356646953	-1.9898367352	-1.3820187004	-0.15885
H	 1.4162590202	 1.5979295745	-0.0921393258	 0.135551
H	-0.2610466691	 1.8349699935	-0.6232037873	 0.141493
H	 0.0842743068	 1.5254684399	 1.1110850694	 0.127962
H	 0.6298384884	-0.7329105801	-4.1778449032	 0.106535
H	 2.3230572837	-0.7042066381	-3.6875005168	 0.101891
H	 0.5544235545	-2.9604946975	-3.3150171425	 0.083402
H	 2.5599130648	-3.9600707828	-2.2329545042	 0.107213
H	 3.2041820155	-2.332999008	-1.9149639199	 0.113635
H	 1.0082514698	-3.7471929271	-0.2833639415	 0.115389
H	 1.8962257436	-2.2878841642	 0.2127069951	 0.121509
