23
gdb 93839	2.26323	1.45412	1.07595	0.3079	82.02	-0.2294	0.086	0.3154	1251.0294	0.205242	-425.441552	-425.43196	-425.431016	-425.475251	37.015	
C	-0.071766705	 1.5217208236	 0.0721748223	-0.409633
C	 0.0123937889	 0.005492766	 0.0108898922	 0.129963
C	 0.6975681488	-0.501891145	-1.2576046674	-0.08759
O	 0.8882769892	-1.9070075298	-1.2175195101	-0.274836
C	 1.5972088518	-2.3582749478	-0.0581240788	 0.115575
C	 3.0802991303	-1.9784830991	-0.1084600775	-0.413163
C	 0.8589898528	-1.8567452258	 1.19592318	 0.129581
C	 1.5182776185	-2.2239234002	 2.5163676873	-0.417376
O	 0.743960497	-0.4367752913	 1.1514251233	-0.280552
H	 0.9281849265	 1.9641813211	 0.0241430884	 0.12333
H	-0.6653829361	 1.910215008	-0.7611307962	 0.116192
H	-0.539517795	 1.8367840027	 1.0084646621	 0.126931
H	-1.0008425843	-0.4310418205	 0.0509715577	 0.067323
H	 0.0763929664	-0.3053675187	-2.1373922732	 0.104618
H	 1.6542597563	 0.0270269882	-1.3912575431	 0.088872
H	 1.5054631173	-3.4498437149	-0.0991188249	 0.079356
H	 3.2347605606	-0.9198856547	 0.115635399	 0.127637
H	 3.6522771002	-2.5619884223	 0.6184628769	 0.116967
H	 3.4782392344	-2.1907945933	-1.1044313547	 0.121624
H	-0.1544333117	-2.2921244215	 1.1599249335	 0.067069
H	 2.4988796017	-1.7502134011	 2.6103119048	 0.128447
H	 0.8974287093	-1.8837439858	 3.349347499	 0.124806
H	 1.643900952	-3.3081706777	 2.5983929395	 0.114859
