14
gdb 31214	2.19045	1.768	0.99027	5.9227	70.16	-0.2545	-0.0342	0.2203	1108.5237	0.102561	-432.900509	-432.89244	-432.891496	-432.934316	28.421	
N	-0.7384247022	 0.9617715254	 0.094689981	-0.499726
C	 0.4763038908	 0.196319364	-0.1362737034	-0.283494
C	 0.9350164882	-0.4502028704	 1.128161195	 0.296187
C	 0.4197486298	-0.6381884406	 2.380143964	 0.07117
N	 1.3472452737	-1.3411862698	 3.1586860572	-0.293046
C	 2.3382750631	-1.5339239129	 2.3629552485	 0.067513
O	 2.1704890235	-1.02158595	 1.1152373478	-0.176011
C	-0.8276357263	-0.2253872602	 2.918186894	 0.252177
N	-1.8261231065	 0.1020805881	 3.4023809021	-0.351528
H	-0.5436627571	 1.8172406075	 0.6032307639	 0.245393
H	-1.1687445293	 1.2199997275	-0.7849051651	 0.244007
H	 0.251874241	-0.5915995714	-0.8678556566	 0.14383
H	 1.327324008	 0.7621060264	-0.5546886242	 0.118345
H	 3.2698457133	-2.0410484436	 2.5576324458	 0.165184
