16
gdb 1253	6.05897	1.28038	1.17601	2.254	59.53	-0.2565	0.0222	0.2787	1011.4441	0.134919	-362.906662	-362.898251	-362.897307	-362.940129	28.918	
C	 0.0753261334	 0.6344647137	-0.7135265638	-0.405007
C	-0.0856992839	-0.2592924058	 0.5110003142	 0.122934
O	 0.5104076892	 0.2950695673	 1.6772964335	-0.425619
C	-1.5555511272	-0.5845236624	 0.8134860925	-0.105422
O	-2.1919434837	-1.2369280303	-0.2824837581	-0.175969
C	-2.2256038406	-2.5845117972	-0.2648580695	 0.129774
N	-2.651445675	-3.2197667857	-1.2680802593	-0.440934
H	 1.1336060405	 0.8168728501	-0.9174414733	 0.12686
H	-0.383714076	 0.1728112239	-1.5913943776	 0.148925
H	-0.4175481475	 1.6021451912	-0.5505956443	 0.106569
H	 0.4434888831	-1.205709471	 0.3418926197	 0.095091
H	 0.2373070263	 1.2171237493	 1.7385742403	 0.282329
H	-1.6126450003	-1.1953404842	 1.7228270647	 0.114933
H	-2.1170881362	 0.3403463291	 0.9883616453	 0.108458
H	-1.8725454563	-3.0157991002	 0.6830720582	 0.087311
H	-2.6352528657	-4.2193900379	-1.0775367526	 0.229766
