20
gdb 22264	2.43906	1.27608	1.05433	1.5414	78.06	-0.2467	0.0092	0.2558	1231.9186	0.168192	-440.234834	-440.224855	-440.223911	-440.270056	36.937	
C	 0.181870363	 1.4318787231	 0.0520448479	-0.501765
C	 0.0087115747	-0.0630009349	-0.0283520241	 0.330675
N	-0.0196190151	-0.838349127	 0.9852870087	-0.170138
O	 0.1245498769	-0.1414803181	 2.1957945378	-0.400649
C	-0.1323188154	-0.6879755976	-1.4031380782	 0.322228
O	-1.1517210209	-0.0308611229	-2.138692804	-0.472659
C	 1.2523389007	-0.8610957143	-2.1181460953	-0.283024
C	 1.2266254025	-2.3579146874	-1.7090701196	-0.206699
C	-0.2937094181	-2.2244717278	-1.4282475113	-0.255449
H	 0.6226378815	 1.8312383523	-0.8668105269	 0.115946
H	-0.785685159	 1.9227024004	 0.2061485372	 0.150676
H	 0.8199620105	 1.6991227447	 0.8957650025	 0.15611
H	 0.1135209513	-0.8564408127	 2.840762647	 0.305697
H	-0.9055811304	 0.8936075007	-2.2513698104	 0.277405
H	 1.1239643169	-0.7263867221	-3.195860671	 0.10466
H	 2.0878507202	-0.2457018035	-1.7732280869	 0.093554
H	 1.5347341479	-3.0811790889	-2.466048408	 0.097844
H	 1.79233458	-2.5413821273	-0.7931850833	 0.112636
H	-0.6926632747	-2.6916884039	-0.5292552179	 0.11707
H	-0.8982095127	-2.5005235228	-2.2950691943	 0.105881
