15
gdb 67591	2.32191	2.25979	1.55366	1.5686	62.42	-0.2156	0.053	0.2686	864.9537	0.111909	-457.680499	-457.673461	-457.672517	-457.711519	28.511	
O	 0.0525501874	 1.3879624146	 0.1881605274	-0.453107
C	 0.0006643875	 0.0247919815	 0.0298963308	 0.263192
C	 1.0273927001	-0.8664776555	-0.6338753767	-0.022082
O	 0.4474210929	-1.8540221186	-1.4440362407	-0.22687
C	-0.7480211545	-2.1005478975	-0.7525803927	-0.022073
C	-0.5817634793	-1.935419998	 0.7630331488	-0.177836
C	 0.6795104826	-1.0586252547	 0.8473735137	-0.177814
C	-1.2869849213	-0.8702581096	-0.0561823178	 0.263138
O	-2.5929536494	-0.4508524909	 0.0111463507	-0.45311
H	 0.0537729592	 1.8014173176	-0.6826477696	 0.289425
H	 1.995035244	-0.5124858472	-0.9649300517	 0.112254
H	-1.3823478459	-2.860075126	-1.1907505527	 0.112242
H	-0.9544067877	-2.6377435655	 1.4942725089	 0.101604
H	 1.398388131	-1.0020741018	 1.6516409595	 0.101606
H	-2.9018438666	-0.2541745985	-0.8805659979	 0.289432
