16
gdb 97474	7.25539	0.45202	0.42776	4.3207	97.96	-0.2426	-0.0476	0.195	2476.7902	0.122086	-400.741544	-400.730894	-400.72995	-400.780112	35.137	
C	-0.0436004858	 1.559429747	 0.0552527555	-0.368854
C	 0.0097718315	 0.0209160196	-0.0118780465	-0.346764
C	 0.6854949007	-0.4787457224	-1.1988212453	 0.300068
C	 1.2513741357	-0.8775434821	-2.1930885317	-0.23128
C	 1.8847041481	-1.3250225857	-3.306582368	-0.244242
C	 2.4492654011	-1.7335601018	-4.2989163429	 0.319207
C	 3.1398079727	-2.1354260863	-5.5138990567	 0.205124
N	 3.2426559374	-3.4873159532	-5.6688144234	-0.520845
O	 3.5821240499	-1.3318020585	-6.3126676093	-0.32858
H	 0.9637481356	 1.9832027478	 0.0633335905	 0.136897
H	-0.5765766392	 1.9677373147	-0.8070820761	 0.136898
H	-0.5608331584	 1.8770700835	 0.9649280368	 0.122056
H	 0.5168194726	-0.3722622693	 0.8790653207	 0.142422
H	-1.0089391971	-0.3875714373	 0.0168918924	 0.142425
H	 2.8670148465	-4.127860041	-4.9919950135	 0.267934
H	 3.7089797084	-3.8404371649	-6.4881635723	 0.267534
