23
gdb 112874	3.06516	1.04107	0.82449	2.7279	86.24	-0.2317	-0.0128	0.2189	1481.6779	0.205194	-388.342219	-388.332438	-388.331494	-388.377042	36.79	
C	 0.2554971066	 1.6689179366	 0.109213657	-0.390138
C	 0.0178891103	 0.1560283551	 0.063435053	-0.187459
C	 0.5238757804	-0.5197350314	-1.2189234189	-0.077304
C	 0.5890690217	-2.0566838451	-1.1900441116	-0.241097
C	 0.5946789018	-2.4848504582	-2.6738442726	 0.024616
C	 0.2783794657	-3.9601483682	-2.9070356695	-0.40454
C	-0.3995970023	-1.5024486556	-3.3167883069	-0.320642
C	-0.3118235562	-0.2243531719	-2.4766623474	 0.394566
O	-0.8318049008	 0.8280549351	-2.7537892203	-0.320398
H	 1.3260677044	 1.8982812662	 0.0533964521	 0.105981
H	-0.2401771251	 2.1629207937	-0.7283781831	 0.151183
H	-0.1262407679	 2.0947816785	 1.0424600467	 0.1063
H	 0.5128897704	-0.3206801892	 0.9190843804	 0.093725
H	-1.0535265091	-0.0547548742	 0.1752896378	 0.098368
H	 1.5322227889	-0.1354873277	-1.4449957179	 0.097599
H	 1.4536199615	-2.4358068642	-0.6374244595	 0.099574
H	-0.3097879127	-2.4541810282	-0.697380377	 0.097165
H	 1.5939974225	-2.2732910086	-3.079348717	 0.077315
H	-0.7155415581	-4.2126820852	-2.5192232746	 0.114091
H	 0.293025341	-4.2091422319	-3.9732459353	 0.116018
H	 1.0060764846	-4.6059294121	-2.4038185024	 0.114491
H	-0.234855691	-1.2929112533	-4.3768693163	 0.124414
H	-1.4283770869	-1.8797933603	-3.2243604665	 0.126174
