16
gdb 93327	2.26099	1.67911	1.11678	4.8806	69.06	-0.2632	-0.0395	0.2237	1072.3079	0.124171	-437.928811	-437.92051	-437.919566	-437.962203	30.621	
O	-0.9790628005	 1.1455030578	-0.6171612697	-0.431059
C	-0.0884917322	 0.1875256862	-0.0834868933	 0.1003
C	-0.9453810386	-0.9504259892	 0.493573231	-0.236878
C	-1.405955976	-1.7487112162	-0.7360192313	-0.31662
C	-0.305149771	-1.5659273383	-1.7792389051	 0.418264
O	-0.2046550326	-2.1158388229	-2.8370388729	-0.287959
C	 0.7087025765	-0.5211678816	-1.2113583123	-0.291149
C	 1.2472341399	 0.3911796791	-2.2029472442	 0.279926
N	 1.6382559449	 1.1757615371	-2.95669768	-0.323358
H	-0.4713146867	 1.8112975984	-1.0967721165	 0.304136
H	 0.5812977807	 0.6312409614	 0.6637451878	 0.088456
H	-0.3304087787	-1.5694066692	 1.1550309682	 0.112375
H	-1.7700539341	-0.5433876227	 1.0805725585	 0.13054
H	-1.588575623	-2.8104860243	-0.5560840819	 0.138737
H	-2.3223463037	-1.3269717785	-1.1625235402	 0.162434
H	 1.5310603851	-1.1001312672	-0.7683669381	 0.151856
