19
gdb 98571	4.02662	0.98739	0.81131	1.8516	80.74	-0.2486	-0.0319	0.2167	1425.7393	0.159509	-423.081227	-423.072169	-423.071224	-423.11582	32.267	
C	-0.0516055257	 1.3357237924	 0.0501558453	-0.23919
O	 0.030825807	-0.0905990342	-0.0232410352	-0.236462
C	 0.6791892145	-0.573689982	-1.1097863242	 0.367163
O	 1.160234498	 0.1365781189	-1.9622974781	-0.380733
C	 0.7098189652	-2.0499797071	-1.096542868	 0.207331
C	 1.2469893307	-2.7723608593	-2.086198888	-0.12732
C	 1.1058554281	-4.2513442486	-1.8510451396	-0.255493
C	 0.6590932433	-4.3347099691	-0.3666663231	-0.215317
C	 0.1088454714	-2.9268679295	-0.0172937641	-0.313213
H	 0.9468699355	 1.7797609739	 0.0816616734	 0.139615
H	-0.5828590812	 1.7377370449	-0.8166008141	 0.139495
H	-0.5967473773	 1.5560354814	 0.9682617769	 0.129678
H	 1.698309232	-2.3386237845	-2.9708361719	 0.119044
H	 0.3528640486	-4.6698674541	-2.5347494994	 0.116151
H	 2.0316626876	-4.8027179849	-2.0497426808	 0.111778
H	-0.0697763389	-5.1289010909	-0.1892581964	 0.101598
H	 1.5296498754	-4.5508106078	 0.2602852506	 0.109414
H	 0.3830381322	-2.6029447365	 0.9906139025	 0.114594
H	-0.9875707363	-2.8896045528	-0.0618820859	 0.111867
