12
gdb 21612	4.14471	2.06875	1.37997	2.8626	62.1	-0.2339	-0.0702	0.1637	811.7272	0.086373	-407.016376	-407.009576	-407.008631	-407.047486	24.781	
N	 0.0112245393	 1.3056657582	 0.0080839053	-0.538948
C	-0.0592059081	-0.0370728176	 0.0009581587	 0.478956
N	-1.211963514	-0.6440087506	 0.0039096947	-0.372956
C	-1.1807414231	-2.0215566634	-0.0039918232	 0.432547
N	-2.151140914	-2.8447724343	-0.0032480332	-0.570093
N	 0.1199572609	-2.5757164629	-0.0142670201	-0.210941
N	 1.2544876934	-1.903875933	-0.016757297	-0.022011
N	 1.220009014	-0.6323238527	-0.0094392541	-0.270663
H	 0.9117421082	 1.7504566564	 0.0056210292	 0.281387
H	-0.8340098932	 1.8486317743	 0.0157992149	 0.277849
H	-3.0274105153	-2.3249945655	 0.0045038702	 0.224328
H	 0.2126495919	-3.5820455688	-0.0204170355	 0.290545
