21
gdb 114870	2.66943	1.4505	1.34096	0.477	77.53	-0.2516	0.0808	0.3324	1095.5073	0.183887	-424.223971	-424.215624	-424.214679	-424.257163	31.986	
C	 0.656123252	 1.0960547979	-0.2598802346	-0.24275
O	 0.6506656324	-0.3056824369	-0.0620347047	-0.24121
C	 0.5352680211	-0.6815516958	 1.290373243	 0.201653
C	 0.4756693529	-2.2124101151	 1.3587821648	-0.261509
C	 1.9446782996	-2.6191079561	 1.5084556523	-0.03588
C	 2.844672583	-2.5661546592	 0.2353895446	-0.229166
C	 3.6055674974	-1.3417708887	 0.8237604827	-0.233166
C	 2.6400114755	-1.3292818521	 2.0407570906	 0.115033
O	 1.6570425854	-0.2961861659	 2.0595150525	-0.266977
H	 1.5071490738	 1.5721309983	 0.241057484	 0.12452
H	 0.7241916257	 1.2685080755	-1.3362952882	 0.123461
H	-0.2715430587	 1.5540134647	 0.1167340637	 0.104144
H	-0.3297755945	-0.1708808717	 1.7378980312	 0.068718
H	-0.0986467857	-2.5101868135	 2.2411148995	 0.104487
H	-0.0095287459	-2.6254412348	 0.4721774457	 0.115633
H	 2.0718511364	-3.5170056486	 2.1148460741	 0.067834
H	 3.456723636	-3.4562564298	 0.0736913	 0.093744
H	 2.2926587648	-2.3471842946	-0.6797231274	 0.114642
H	 4.6413410439	-1.5540264145	 1.1023352032	 0.095039
H	 3.5827848273	-0.4296874348	 0.2254860579	 0.109054
H	 3.1079973877	-1.3446147341	 3.0280215449	 0.072696
