23
gdb 90442	2.77975	1.32081	1.11877	0.3709	91.98	-0.2203	0.0274	0.2476	1233.7213	0.206815	-351.150467	-351.141703	-351.140759	-351.183509	34.851	
C	-0.1056547313	 1.572232739	 0.1701422109	-0.404282
C	-0.0494826109	 0.058751439	 0.025575397	-0.065919
C	 0.9997356887	-0.5954014566	-0.9584070851	-0.269478
C	 1.2577373012	-1.7167231812	 0.1143428104	-0.047075
C	 2.6037329633	-2.1138896315	 0.7832693915	-0.01001
C	 3.810323699	-1.318894321	 0.2764758112	-0.389823
C	 2.3243709827	-1.8111050479	 2.3019241765	-0.249889
C	 1.2400824891	-0.7373687886	 2.2739301776	-0.249629
C	 0.6262378491	-0.7720251628	 1.0959517702	 0.314491
H	 0.8851157538	 1.9772494553	 0.4010704349	 0.115082
H	-0.4601679984	 2.0437967718	-0.7528925751	 0.113602
H	-0.7849946838	 1.867732441	 0.9770430355	 0.117579
H	-1.0470599816	-0.3353493967	-0.2076034467	 0.080693
H	 0.627223581	-0.9138637899	-1.93543968	 0.093304
H	 1.8633221976	 0.0595753715	-1.0971468638	 0.105281
H	 0.6441450745	-2.5970373599	-0.1132403123	 0.068807
H	 2.8081983727	-3.1799674093	 0.6388287499	 0.062173
H	 3.6791219789	-0.2455740486	 0.4529639967	 0.116173
H	 4.7224795651	-1.6296629045	 0.7966052324	 0.109174
H	 3.968520326	-1.4669643913	-0.7968437327	 0.110883
H	 1.9952045782	-2.7138821598	 2.8356962762	 0.09858
H	 3.2301963827	-1.4660875724	 2.8154453723	 0.094322
H	 1.0834340025	-0.0321071855	 3.0822346826	 0.08596
