21
gdb 80148	2.1082	1.77138	1.39363	1.0614	84.1	-0.2287	0.015	0.2437	1077.8498	0.182281	-387.087834	-387.078976	-387.078032	-387.120834	34.31	
C	-0.3657779354	 1.4770850048	-0.2414594927	-0.403685
C	-0.0924188808	-0.0028336002	-0.1156552218	-0.068126
C	 1.3116407664	-0.6015122008	-0.2773134365	-0.158376
C	 2.5330681739	 0.2274910044	-0.4244862094	-0.070915
C	 3.1370382559	 0.7289568448	 0.6515250198	-0.081288
C	 2.5440130044	 0.5151605296	 2.0209651139	-0.131071
O	 1.1300601649	 0.3650506128	 1.9929708133	-0.296092
C	 0.6400166148	-0.5839161527	 1.0729633477	 0.389645
C	 0.165063164	-1.8523863883	 1.7403094926	-0.449357
H	 0.451871123	 2.0681445485	 0.173331547	 0.128909
H	-0.4999549622	 1.7622571005	-1.290600195	 0.108955
H	-1.2797434721	 1.7474266532	 0.298360592	 0.116179
H	-0.8816369454	-0.6391255644	-0.510326617	 0.079082
H	 1.3466278328	-1.5582177655	-0.7937017462	 0.088282
H	 2.9333009773	 0.3870869827	-1.4221760827	 0.090946
H	 4.058257699	 1.2995988928	 0.5814300216	 0.092617
H	 3.0184418201	-0.3546255002	 2.5090719372	 0.101009
H	 2.7323929412	 1.3802256558	 2.6652395384	 0.112932
H	-0.6114821107	-1.6275159174	 2.4790757761	 0.123694
H	-0.2489860273	-2.5510532159	 1.006896792	 0.111223
H	 0.9893017259	-2.3550327945	 2.2591732096	 0.115436
