19
gdb 78892	2.87245	2.04717	1.65192	1.81	76.29	-0.2342	0.0732	0.3074	892.9019	0.161927	-385.848872	-385.842354	-385.84141	-385.879377	27.801	
C	-0.0202863268	 1.5671454238	 0.0260909127	-0.398511
C	 0.0492122175	 0.0397723914	 0.0262196334	 0.009018
C	 0.8096313455	-0.585247884	-1.1430678609	-0.068506
C	 2.301782917	-0.8563291634	-0.9876159535	-0.094347
C	 1.2641219246	-1.9730336364	-0.8136815004	-0.110393
C	 1.4689810545	-1.8776896041	 0.718254779	-0.108089
C	 2.6658087263	-0.9330270585	 0.5131283593	 0.114203
O	 2.106262663	 0.1042879804	 1.3398487748	-0.307875
C	 0.804867599	-0.545744297	 1.2263493097	 0.065596
H	 0.9840038902	 1.9906952057	 0.094819625	 0.136407
H	-0.4959080492	 1.9375301529	-0.8877845106	 0.105767
H	-0.6032524279	 1.9363103153	 0.8768075575	 0.108548
H	-0.9701145611	-0.3733526542	 0.0234573685	 0.068396
H	 0.4866392924	-0.3725545025	-2.1573414597	 0.083379
H	 2.9892479745	-0.6804579848	-1.8061951748	 0.082147
H	 1.0864262978	-2.8616569854	-1.4037892567	 0.08795
H	 1.4953956897	-2.7538328937	 1.360067539	 0.076883
H	 3.7028939592	-1.1740823355	 0.7535613343	 0.077573
H	 0.2655729339	-0.52431532	 2.1763489334	 0.071856
