17
gdb 105734	2.25497	1.53912	1.20682	2.8209	75.92	-0.2478	-0.0004	0.2474	1093.5294	0.134152	-421.78147	-421.772683	-421.771738	-421.815055	32.859	
O	 0.0399197648	 1.3398875319	-0.2620235001	-0.417804
C	-0.0129981612	-0.0344882131	 0.0280081879	-0.065475
C	-1.472382215	-0.5244196343	 0.1789350989	 0.104183
O	-2.1539597187	-0.1483238701	-1.0397798881	-0.304862
C	-2.712903371	-1.2971016241	-1.6780328459	-0.131808
C	-2.2812640817	-2.4612953672	-0.8340330779	-0.093734
C	-1.5909370584	-2.0333868274	 0.2143217162	-0.127987
C	-2.1256038403	 0.1017392241	 1.335402186	 0.36851
C	-2.6494812109	 0.5806316915	 2.3048457648	-0.487322
H	-0.5717183027	 1.4791183769	-0.9958137018	 0.292978
H	 0.4545438862	-0.6434049984	-0.7621164583	 0.085307
H	 0.5357614827	-0.1947953181	 0.9612106964	 0.11191
H	-3.8084355626	-1.2032496052	-1.7302205746	 0.116985
H	-2.3396322054	-1.3588963349	-2.7106199309	 0.113781
H	-2.5285904191	-3.4880820246	-1.0720260227	 0.116168
H	-1.1650909883	-2.6245858196	 1.0135468408	 0.119786
H	-3.1131030184	 1.0190372525	 3.1539443291	 0.199384
