16
gdb 44845	3.4725	1.66847	1.52952	1.7036	67.58	-0.2642	0.0187	0.283	887.9676	0.127674	-437.879168	-437.873079	-437.872134	-437.909475	25.536	
N	-0.0707617692	 1.2543199133	-0.0123734419	-0.55971
C	-0.0402091357	-0.0048816789	-0.0047198869	 0.441425
O	 1.100841686	-0.7831525397	 0.0050183682	-0.265056
C	 0.6444889571	-2.1717436913	 0.0285365015	 0.044579
C	-0.6201100549	-2.1060517826	-0.8369899902	-0.243575
C	-1.2236142029	-0.9624811718	 0.0125921855	-0.158835
C	-1.1491944996	-1.5616255005	 1.4337410884	 0.048119
O	-1.202046512	-2.9906222419	 1.5065218809	-0.253402
C	 0.0822467175	-2.3587902621	 1.4460020069	 0.036603
H	 0.8765438114	 1.638271597	-0.0108053856	 0.224892
H	 1.4709668461	-2.8046914723	-0.2872628091	 0.092874
H	-0.395350727	-1.8012798977	-1.8601649274	 0.11924
H	-1.2097930919	-3.019545067	-0.8229074933	 0.135729
H	-2.1649541306	-0.5138072892	-0.2926227702	 0.100625
H	-1.5287946152	-1.0175262212	 2.2914026016	 0.12178
H	 0.730726221	-2.4755577142	 2.3072786916	 0.114711
