19
gdb 70209	3.5268	1.28524	1.08601	3.292	75.64	-0.2435	0.0248	0.2683	1144.308	0.161484	-419.237017	-419.22879	-419.227846	-419.269669	31.857	
C	-0.1292251295	 1.5286202808	 0.0691481349	-0.452909
C	 0.015518716	 0.0244265428	 0.0332077025	 0.311972
C	-1.1454174446	-0.6972595254	-0.6350296195	-0.227225
N	-0.993831594	-2.1422175553	-0.6078164345	-0.312732
C	-0.4618228185	-2.8859715165	 0.4126722945	 0.365329
O	-0.5282481911	-4.09980813	 0.4257819125	-0.368813
C	 0.2379896152	-2.0932064009	 1.5115025756	-0.344795
C	 0.7179394627	-0.7128793247	 1.1125293742	-0.054383
N	 1.3815072513	-0.4790088648	-0.1870489095	-0.372223
H	 0.7434323286	 1.9794795286	 0.546404129	 0.135103
H	-0.2064914823	 1.9391609076	-0.944319811	 0.12041
H	-1.0248833501	 1.8283334638	 0.6247874902	 0.116061
H	-2.0806683734	-0.3803839697	-0.1468397314	 0.1138
H	-1.2183969998	-0.3843001997	-1.6839275425	 0.118896
H	-1.490827054	-2.6892031119	-1.2959147438	 0.249844
H	-0.4657798792	-2.0030583756	 2.3502414948	 0.134694
H	 1.0611095657	-2.7176991821	 1.8722035748	 0.14106
H	 1.1599281439	-0.1400185685	 1.9257000625	 0.092909
H	 1.3557204131	-1.3294825886	-0.7473000732	 0.233002
