17
gdb 35887	2.17851	1.55554	1.1079	6.309	75.64	-0.3219	0.0101	0.332	1121.514	0.138064	-380.915943	-380.907513	-380.906569	-380.9499	30.252	
N	-0.7384165209	-0.6558850455	-1.1988180625	-0.312982
C	-0.4123716232	 0.3000989329	-0.6377928055	 0.273309
C	-0.0203389252	 1.514742619	 0.0671696806	-0.145992
C	-0.4054727546	 1.5425238154	 1.5683485065	-0.221146
C	 0.5456133948	 2.5923501049	 2.2065417224	-0.215493
C	 1.5853783964	 2.9623856205	 1.1171443397	-0.227371
C	 1.5083387901	 1.8195387588	 0.0734926212	-0.171768
C	 2.2998189866	 0.6608155797	 0.4921657832	 0.290554
N	 2.9349843343	-0.2362909047	 0.8487913324	-0.317274
H	-0.4972672954	 2.3600555058	-0.443186467	 0.136411
H	-1.4625912234	 1.7808658452	 1.69857243	 0.12561
H	-0.2382791196	 0.5528220664	 1.9998195149	 0.14648
H	 0.0036483844	 3.480108804	 2.5402137084	 0.117323
H	 1.0369308631	 2.1701770897	 3.0857280051	 0.131971
H	 1.3066079937	 3.8940807711	 0.6153393397	 0.117389
H	 2.5947740238	 3.0903803095	 1.5107480986	 0.133448
H	 1.8570208852	 2.1322863673	-0.9144678075	 0.139531
