15
gdb 126484	2.71547	1.51982	0.98613	2.2634	69.35	-0.2614	-0.0732	0.1883	1141.794	0.112062	-453.949178	-453.941143	-453.940199	-453.982581	28.868	
C	-0.0706830055	 1.5382309227	 0.1180617209	-0.389681
C	 0.0256341343	 0.022863872	-0.0454821262	-0.253774
C	 0.7315678085	-0.4544885448	-1.2821169781	 0.23939
N	 1.1944022194	 0.4261626382	-2.097599417	-0.130047
O	 1.847162478	-0.0700675165	-3.2408414249	-0.208176
C	 1.9481319719	-1.3913414603	-3.4128561163	 0.171418
N	 1.5194930737	-2.3278366132	-2.656986496	-0.311697
C	 0.8546494923	-1.931236617	-1.4921180844	 0.358021
O	 0.4006913886	-2.7169104051	-0.6924284075	-0.317815
H	 0.9197142476	 1.9990595695	 0.1581938234	 0.134304
H	-0.6112597252	 1.9959421931	-0.7144855265	 0.13431
H	-0.5992464521	 1.7773242412	 1.0444857951	 0.119289
H	 0.5357320497	-0.4403977541	 0.8086745727	 0.145369
H	-0.9678276341	-0.4434298286	-0.0484694235	 0.145361
H	 2.4777346929	-1.6011657771	-4.3409575817	 0.163725
