10
gdb 130907	7.4239	0.91399	0.8138	1.1203	62.82	-0.2995	-0.1183	0.1812	1244.5703	0.053781	-467.601404	-467.594259	-467.593315	-467.633736	24.179	
O	-0.0673208964	-0.0070740872	-0.0020091248	-0.212189
C	 0.0079441989	 1.1906466935	 0.006673084	 0.09513
C	 1.300377495	 1.9407107625	-0.0010150227	 0.249745
N	 2.4809485094	 1.3633573958	-0.0180609735	-0.104772
O	 3.3640449846	 2.4217154815	-0.0189806974	-0.168544
C	 2.6158161005	 3.5417555285	-0.0022124411	 0.346237
N	 1.3385306385	 3.3153045567	 0.0090827365	-0.317087
C	 3.2885949085	 4.7938985351	 0.0003990037	 0.278863
N	 3.83993112	 5.8092833523	 0.0024448874	-0.292318
H	-0.873835079	 1.8602454114	 0.0210866779	 0.124934
