15
gdb 88942	2.90314	1.07164	0.83743	1.4378	64.41	-0.2596	-0.0955	0.1641	1316.6602	0.109081	-494.8967	-494.887511	-494.886566	-494.93272	31.483	
O	-0.2635225926	 1.4912297551	 0.5012406835	-0.429018
C	-0.0774241978	 0.1286003611	 0.2981038851	 0.112811
C	-0.70456931	-0.8790805332	 1.2413208997	-0.341198
C	-1.2270933025	-0.7155973606	-0.1645791741	 0.059264
O	-2.4228718637	 0.0385014946	-0.303539371	-0.234142
C	-3.4974343916	-0.5803864655	-0.8026100933	 0.344441
O	-3.5648544888	-1.7297942011	-1.1519631112	-0.330517
C	-4.6964228869	 0.3682869777	-0.9043162491	 0.08945
O	-4.6721018009	 1.5233739399	-0.5856999417	-0.212207
H	-1.1654078338	 1.7134974914	 0.2393683574	 0.305182
H	 0.9050048999	-0.0943648668	-0.1079463966	 0.113108
H	-0.1750399396	-1.7936166607	 1.484379694	 0.128213
H	-1.3197810766	-0.46848663	 2.034471276	 0.135764
H	-1.1248689169	-1.499629404	-0.9035594379	 0.136148
H	-5.5889168782	-0.1464941979	-1.3106680809	 0.122701
