14
gdb 1494	6.26275	1.44102	1.27609	3.6583	62.42	-0.2566	-0.0238	0.2328	937.9822	0.111771	-324.573795	-324.5657	-324.564756	-324.607477	27.757	
C	 0.21861429	 1.4115108176	-0.0718556166	-0.371206
C	-0.3578527476	 0.0173984638	 0.1876447881	-0.152357
N	 0.2569758139	-0.6495057803	 1.3251247506	-0.314433
C	 1.1710532044	-1.6521746821	 1.1843630019	 0.287372
O	 1.5262889427	-2.114355167	 0.1149044803	-0.360322
C	 1.6917485146	-2.1401816561	 2.4576628225	 0.219354
C	 2.1426480995	-2.5626041551	 3.4890974845	-0.406479
H	 1.28886771	 1.3516963461	-0.288145183	 0.137419
H	-0.2811317549	 1.8752960014	-0.9281255882	 0.122241
H	 0.0803026002	 2.0680031414	 0.7939504892	 0.113161
H	-1.4391857708	 0.0770086298	 0.357552948	 0.109016
H	-0.1896185793	-0.6327359163	-0.6731740106	 0.153295
H	 0.0676436737	-0.3134750551	 2.2560258486	 0.253701
H	 2.5497745436	-2.9468272181	 4.3924440146	 0.209238
