21
gdb 100067	4.23175	0.70235	0.69225	2.0846	83.82	-0.237	0.0539	0.2909	1733.7281	0.178378	-424.203272	-424.191733	-424.190788	-424.241197	40.601	
C	 0.1189545148	 1.5364448127	-0.0249016722	-0.498615
C	 0.0658933528	 0.0817256275	 0.0110076602	 0.098182
C	 0.0202204641	-1.1210232053	 0.0316950207	 0.049969
C	-0.0192419644	-2.5781784988	 0.0620632255	-0.375418
C	-1.4413940201	-3.1814178501	 0.0381125615	 0.364024
C	-2.3222484747	-2.6235998172	 1.164270885	-0.41958
O	-1.9962498275	-2.8647620133	-1.2328428113	-0.471357
C	-1.3282620346	-4.7111681291	 0.1436277342	-0.111336
O	-2.6314748743	-5.2378033799	-0.0926267365	-0.435563
H	 1.0795207279	 1.8900075204	-0.4163378782	 0.14465
H	-0.6690636339	 1.947032742	-0.6660011147	 0.148269
H	-0.0087709823	 1.9681368122	 0.9741992608	 0.142916
H	 0.5238037737	-2.9769325673	-0.8036587977	 0.12763
H	 0.4996108721	-2.9424480276	 0.9590071686	 0.11704
H	-2.4497111019	-1.5479763207	 1.0300285083	 0.133896
H	-3.3030782544	-3.1057109151	 1.146486179	 0.122358
H	-1.8720149071	-2.8018744267	 2.1471157464	 0.103288
H	-2.743491362	-3.4665743521	-1.3438628461	 0.28256
H	-0.6195701219	-5.0703520713	-0.6157415703	 0.092225
H	-0.9570122761	-5.0052861831	 1.1366749338	 0.0899
H	-2.5542092901	-6.1734391272	-0.2962857271	 0.294963
