21
gdb 107663	3.1332	1.26257	1.06525	1.9528	77.83	-0.2459	0.0826	0.3284	1210.7447	0.183551	-424.213863	-424.20535	-424.204405	-424.246886	32.997	
C	 0.1145586484	 1.4769048794	 0.3502402232	-0.380317
C	-0.0541480444	 0.0530679212	-0.1970338794	-0.26413
C	-1.47084006	-0.4839898608	-0.0817995892	 0.277778
C	-1.9125516514	-1.0741424999	 1.2430534009	-0.340847
C	-1.6630666317	-1.9774764339	 0.0610461784	 0.055613
O	-2.7707925043	-2.6074307976	-0.5276228966	-0.247563
C	-3.3667138134	-1.8403406473	-1.5421530728	 0.012788
O	-3.6890297055	-0.5469966417	-1.1104369911	-0.233662
C	-2.5113926197	 0.2309255809	-0.9317928632	-0.157173
H	 1.1583073667	 1.7985271777	 0.2841572816	 0.11507
H	-0.4877089557	 2.1999030447	-0.2094367653	 0.120366
H	-0.1897937081	 1.5334100872	 1.4005197894	 0.121883
H	 0.2586930018	 0.0247817587	-1.2498229148	 0.097508
H	 0.6240892765	-0.6211971875	 0.3397901521	 0.097951
H	-1.2053963915	-1.0805139517	 2.0661937536	 0.106982
H	-2.9530902056	-0.9558272393	 1.5244302613	 0.127233
H	-0.7833964945	-2.6167760165	 0.0651882519	 0.092885
H	-2.7007727324	-1.7827651905	-2.4233350796	 0.075625
H	-4.2999426269	-2.3428132821	-1.8036732105	 0.117556
H	-2.8352288303	 1.1709139366	-0.4756022897	 0.115296
H	-2.0713346778	 0.4635180724	-1.9171484603	 0.089156
