21
gdb 106702	2.41691	1.46549	1.18272	1.8105	82.06	-0.2472	0.0811	0.3283	1171.0125	0.181207	-387.04422	-387.035205	-387.034261	-387.077794	34.535	
C	 0.1400564021	 1.4852344406	 0.2236378112	-0.373896
C	-0.1171897126	 0.0060372101	-0.0965326258	-0.291485
C	 0.6203415286	-0.4717009621	-1.3180361751	 0.302685
C	 2.0563383387	-0.9506442023	-1.31735888	-0.384795
C	 0.9754647142	-1.9202035446	-1.7397387111	 0.249885
C	 0.6646243271	-3.2102294473	-1.0358325598	-0.496343
C	 0.5531001251	-1.5703338539	-3.1540945913	-0.041258
O	-0.812184012	-1.1216131706	-3.1396291541	-0.253379
C	 0.2170174184	-0.1942294477	-2.7551530003	-0.047698
H	 1.2027844838	 1.6691610385	 0.4131863558	 0.116472
H	-0.1648040256	 2.1284360669	-0.6087625586	 0.1178
H	-0.4209601467	 1.7999924735	 1.1089493128	 0.11222
H	 0.1715920537	-0.6084778322	 0.7654350365	 0.095191
H	-1.1912410413	-0.1590141696	-0.2470641483	 0.111483
H	 2.7721717332	-0.5670062005	-2.040205785	 0.104487
H	 2.4847953941	-1.1325448926	-0.3346712455	 0.111155
H	 0.8133378508	-3.1206897078	 0.0451785952	 0.117801
H	-0.3754538246	-3.5042624615	-1.2104585077	 0.132334
H	 1.3101034513	-4.0236237146	-1.3880918363	 0.119983
H	 0.9370385842	-1.9423589758	-4.0975050688	 0.098576
H	 0.2863752075	 0.7247241034	-3.3262312638	 0.098781
