17
gdb 98345	3.65335	0.82499	0.70239	1.322	71.98	-0.2661	-0.049	0.2171	1541.96	0.131654	-458.934547	-458.924358	-458.923414	-458.971079	35.831	
O	 0.0464049017	 1.399078096	 0.1249953861	-0.418261
C	-0.0105041796	 0.0117014231	-0.0164204944	-0.130383
C	-1.4373411191	-0.5008444054	 0.0555968597	 0.32324
O	-2.3519354297	 0.2918040978	 0.1740440797	-0.33827
C	-1.7386806155	-1.9975611291	 0.0093601767	 0.045501
O	-3.1037075403	-2.2185124392	 0.2094698801	-0.424612
C	-1.2724825406	-2.6203993035	-1.3366397636	-0.385738
C	-1.4947853138	-4.0578486757	-1.3802682206	 0.313462
C	-1.6619307199	-5.2469163824	-1.4041588037	-0.425227
H	-0.8737722246	 1.6942279449	 0.2008924095	 0.298544
H	 0.4286913734	-0.3058440322	-0.976742539	 0.127303
H	 0.5754465591	-0.4936128965	 0.7686741384	 0.128466
H	-1.1590013267	-2.4755752986	 0.8156000946	 0.109571
H	-3.5127624081	-1.3405164581	 0.2573022366	 0.298005
H	-1.8216022753	-2.1286806004	-2.1491514943	 0.144081
H	-0.2068598052	-2.411285374	-1.49160413	 0.133586
H	-1.8188699958	-6.2967217566	-1.4310358158	 0.200731
