17
gdb 128469	2.90469	1.24292	1.08723	1.7997	69.85	-0.276	-0.0292	0.2468	1171.2784	0.135211	-455.136708	-455.127871	-455.126927	-455.171551	30.718	
C	-0.6450771072	 0.8148161382	-0.1486541341	-0.243641
O	 0.5893867475	 0.1450058268	 0.0228446864	-0.231169
C	 1.0427980871	-0.5384702939	-1.1236275392	 0.02044
C	 2.4758367247	-0.9931032195	-0.8470443685	-0.411793
C	 0.159481836	-1.7131986484	-1.4660995694	 0.413883
N	-0.2950207622	-2.0586521748	-2.6353217383	-0.315358
C	-0.9872211674	-3.2071168892	-2.3374498842	 0.032972
N	-0.9779371669	-3.5540357934	-1.0806291645	-0.110475
O	-0.2025276177	-2.5501164099	-0.4858970342	-0.191901
H	-0.5988473725	 1.5389636099	-0.9755253985	 0.112811
H	-1.47194048	 0.1168279868	-0.3410418593	 0.12163
H	-0.8460611769	 1.3483148287	 0.7824492109	 0.136967
H	 1.0198487338	 0.1181319024	-2.0065110897	 0.101809
H	 2.4965814075	-1.6659826003	 0.01376413	 0.146039
H	 2.8891974611	-1.5121686623	-1.7155872934	 0.134099
H	 3.0930047954	-0.1193835553	-0.6258320308	 0.134531
H	-1.5144296722	-3.7937050556	-3.0757418633	 0.149156
