17
gdb 35428	3.42764	1.43487	1.39005	1.6381	72.97	-0.2556	0.0351	0.2907	989.9546	0.136247	-421.757504	-421.750177	-421.749233	-421.789047	29.481	
C	 0.4623634564	-0.8577838808	 0.7542356418	-0.437551
C	 0.1975613682	 0.2295230122	 0.3160788741	 0.361721
C	-0.16742303	 1.5241727579	-0.2944495261	-0.039791
O	-1.0829578136	 2.2388066253	 0.5196139906	-0.268401
C	-0.4599021843	 3.2136824543	 1.3626367198	 0.115477
C	 0.2082482364	 4.2865561502	 0.4610229212	-0.231155
C	 1.3539630496	 3.2452288417	 0.3453463895	 0.115467
C	 0.9704930108	 2.76847065	 1.773061011	-0.283947
O	 0.9851905575	 2.274804488	-0.640336329	-0.2684
H	 0.7026526118	-1.8130214327	 1.1523408808	 0.199379
H	-0.691396126	 1.3206399445	-1.2350078426	 0.12234
H	-1.2009110468	 3.4888679151	 2.113538354	 0.084169
H	-0.3122621849	 4.5585789374	-0.458645393	 0.107477
H	 0.5067781149	 5.1762595234	 1.0209287963	 0.101515
H	 2.3734059129	 3.5510227699	 0.1089135449	 0.084172
H	 1.3828594961	 3.4400839744	 2.5291515975	 0.108339
H	 1.146595201	 1.7315416193	 2.0549288591	 0.129189
