16
gdb 84412	3.19545	1.30949	0.98872	1.0936	73.91	-0.2627	-0.0455	0.2172	1164.4389	0.124921	-434.114385	-434.106158	-434.105214	-434.147573	29.831	
C	-0.0591569158	 1.5614352009	-0.0050881377	-0.382404
C	 0.0378015742	 0.0343160409	 0.0065174757	-0.042659
N	 0.8114834518	-0.4775491317	-1.1370210458	-0.247482
C	 1.7656927718	-1.1705460817	-0.6693861948	 0.069578
N	 1.8212596783	-1.264831623	 0.7387304741	-0.146868
C	 2.7863064398	-1.9660185588	 1.4379357606	 0.163542
O	 3.682304139	-2.5797533371	 0.913851793	-0.294114
C	 0.7327780405	-0.5078675457	 1.256153682	 0.374697
N	 0.373444752	-0.2891118702	 2.447481895	-0.528155
H	 0.9376189001	 2.0115639336	 0.0114295509	 0.125147
H	-0.5744023463	 1.895954939	-0.9082006915	 0.13535
H	-0.6094274598	 1.8994607757	 0.875931174	 0.145692
H	-0.9737683821	-0.3860738475	-0.0477820175	 0.130817
H	 2.524668438	-1.686934458	-1.2434273652	 0.17274
H	 2.6456802772	-1.9032922088	 2.5311589024	 0.097232
H	 0.9654918514	-0.7341640378	 3.1482744148	 0.226887
