20
gdb 77917	2.17819	1.47185	1.46226	2.1892	80.97	-0.2384	0.0082	0.2466	1096.437	0.168557	-403.103679	-403.094222	-403.093278	-403.137296	35.322	
C	-0.0655649114	 1.5605844793	-0.0164735798	-0.436553
C	-0.0264529706	 0.040677496	-0.0035089309	-0.006553
C	 1.188120082	-0.691858654	-0.6507211067	-0.156489
N	 2.0015411861	-0.2261955962	 0.5462838837	-0.121109
C	 3.2356604687	-0.9426222728	 0.8757145691	-0.34731
C	 0.6859733032	-0.6880973537	 1.1886147303	 0.198175
C	 0.4160867532	-0.603849102	 2.6587241474	-0.529172
C	 0.8285890023	-1.9059860283	 0.2375550273	 0.390328
O	 0.901842694	-3.0966595827	 0.2658403259	-0.33072
H	 0.9082872801	 1.9832595645	 0.2331504628	 0.139092
H	-0.3634060112	 1.9264278629	-1.0046381257	 0.117684
H	-0.8031773837	 1.9302640657	 0.7041575194	 0.116179
H	-0.9949749354	-0.394754785	-0.2665951138	 0.081769
H	 1.571810161	-0.6254554396	-1.6675137482	 0.093277
H	 4.0084803912	-0.6414101692	 0.1620027847	 0.128346
H	 3.5620638955	-0.6298182591	 1.8721856813	 0.127161
H	 3.1566259622	-2.0404076252	 0.8614368025	 0.128752
H	 0.4691534339	 0.4311546319	 3.0108792471	 0.1342
H	-0.582684443	-0.992459203	 2.8803797257	 0.136901
H	 1.138000322	-1.1998613496	 3.2259837278	 0.136041
