21
gdb 87869	3.08629	1.24352	1.2136	1.5881	82.64	-0.2357	0.0709	0.3066	1168.7436	0.182836	-387.043042	-387.034704	-387.03376	-387.076091	32.46	
C	-0.186946204	 1.4864379875	 0.2730001477	-0.407736
C	-0.0719875788	-0.0206232584	 0.2228206746	-0.040665
C	 1.1872811935	-0.6792082747	-0.2885824928	-0.363117
C	 0.8300023848	-0.7559049177	 1.1718756237	 0.366667
C	 1.6462338858	-0.2126125253	 2.3633695277	-0.337049
C	 1.2971097966	-1.5043118708	 3.1565110385	-0.073383
C	-0.0682034624	-1.481049802	 3.8673840305	-0.076071
O	-0.7605395956	-1.9382417071	 2.6815632127	-0.290696
C	 0.477218137	-2.0274039384	 1.9415849367	 0.019927
H	 0.7734057298	 1.9499700442	 0.5223260158	 0.113431
H	-0.506952009	 1.8900733104	-0.6939213966	 0.117408
H	-0.9162684782	 1.8060421011	 1.0255753233	 0.11973
H	-1.0020887235	-0.5353501546	-0.0065226463	 0.092327
H	 1.1022452287	-1.5828452942	-0.8848691982	 0.108934
H	 2.0175424469	-0.0364212003	-0.5686985562	 0.105119
H	 2.7147886395	-0.1065980091	 2.1553132969	 0.102884
H	 1.2891900886	 0.718862073	 2.8148853788	 0.099156
H	 2.1097802245	-2.0492550157	 3.6337973013	 0.077092
H	-0.1743404383	-2.2011473463	 4.6887282605	 0.099625
H	-0.4211039343	-0.4985573799	 4.2076624474	 0.097345
H	 0.5922788286	-2.9956061519	 1.4449168341	 0.069073
