19
gdb 64977	3.57617	0.9157	0.79352	4.154	77.26	-0.2454	-0.0276	0.2178	1453.2902	0.15587	-423.04536	-423.035563	-423.034619	-423.081585	34.882	
C	 0.0650259155	 1.5080394046	-0.1022201198	-0.485554
C	 0.072222386	-0.008242173	-0.1077783569	 0.237335
C	 1.4123011983	-0.7253551954	-0.2640253693	-0.272569
C	 0.7353349977	-0.7344738892	 1.062266146	-0.273882
C	-1.0870809705	-0.749011196	-0.7061113915	 0.318819
O	-1.1273448031	-1.9635066336	-0.7275186684	-0.326366
C	-2.2310423262	 0.0689351604	-1.3025701165	-0.413253
C	-3.3338985307	-0.8042712197	-1.8710643495	 0.17711
O	-3.8181485819	-0.6378490821	-2.9598839253	-0.242245
H	 0.9781752546	 1.8871492717	 0.365283405	 0.121937
H	 0.0221910707	 1.9233076783	-1.1147798655	 0.127051
H	-0.7806078385	 1.9140454624	 0.4637451367	 0.122349
H	 1.3978283046	-1.644021746	-0.8382832629	 0.140898
H	 2.282901435	-0.0944630783	-0.4054424381	 0.118393
H	 1.1277269074	-0.1097089559	 1.8570449727	 0.117784
H	 0.2664759722	-1.6593100061	 1.3763275845	 0.13939
H	-2.6603133135	 0.7033628424	-0.5126684151	 0.145049
H	-1.8669624518	 0.7473149793	-2.0808876433	 0.148673
H	-3.682115716	-1.6105288638	-1.1948900627	 0.099082
