12
gdb 5348	6.0286	1.54364	1.22896	2.0541	69.26	-0.2788	-0.0756	0.2032	889.37	0.08726	-340.456824	-340.450851	-340.449907	-340.487041	22.146	
N	 0.0174672556	-1.1649323049	-0.0036385865	-0.318555
C	 0.0022658745	-0.0079711771	 0.0032874725	 0.213972
C	-0.0172006222	 1.42344608	 0.0108780389	 0.196716
C	-1.2289637423	 2.1209682517	 0.030717505	-0.198472
C	-1.1866382188	 3.5109076611	 0.0373230478	 0.023261
N	-0.055223416	 4.2206735481	 0.0258076583	-0.256864
C	 1.0950627084	 3.5420831352	 0.0068879869	 0.023258
C	 1.1751535408	 2.1538167859	-0.0013498945	-0.198466
H	-2.1734380754	 1.5910256968	 0.040653173	 0.131102
H	-2.111577498	 4.0814732565	 0.0526677115	 0.126479
H	 2.0041506963	 4.1377080345	-0.0022274202	 0.126477
H	 2.1336808971	 1.6498761822	-0.0167981328	 0.131093
