18
gdb 69973	2.55166	1.86146	1.37207	2.1538	71.32	-0.2258	0.0588	0.2846	978.5374	0.146796	-439.002466	-438.994474	-438.99353	-439.034362	31.713	
C	 0.0050530878	 1.5614278035	 0.0561038111	-0.513445
C	 0.1140192826	 0.0701559428	 0.0091896267	 0.290429
N	-0.8178754746	-0.8343780159	 0.7078352732	-0.363514
C	 0.6386266318	-0.9418302153	 0.9837740356	-0.129586
C	 1.2625988639	-1.7747727836	-0.1633290138	 0.03181
O	 0.4599064996	-2.8317530129	-0.7181568202	-0.284661
C	-0.1188983989	-1.9522177577	-1.7151831134	-0.144171
C	 0.699029351	-0.7479266136	-1.1795820946	 0.31513
O	 1.4466998509	 0.0513653076	-2.0369674515	-0.478079
H	 0.9035875069	 2.0255033459	-0.3587242449	 0.144326
H	-0.8538129166	 1.9147482042	-0.5264453761	 0.129814
H	-0.1208881525	 1.9080027136	 1.0876467813	 0.11527
H	-1.2246888297	-0.308278701	 1.4811825717	 0.228361
H	 1.0158194629	-0.8162402841	 1.992308291	 0.090927
H	 2.3225417202	-2.0216001238	-0.0589183455	 0.076589
H	 0.1728189271	-2.2540812746	-2.7317632423	 0.081261
H	-1.2067637773	-1.8929275266	-1.6332076957	 0.122368
H	 1.942315725	-0.5182268584	-2.6352217128	 0.28717
