14
gdb 25615	4.9469	0.86214	0.77063	2.7046	63.74	-0.2585	-0.0097	0.2488	1378.7779	0.101243	-473.866499	-473.858678	-473.857733	-473.900823	26.791	
O	 0.2726862015	 0.1118717172	-0.306023118	-0.266564
C	 0.3178044081	 1.3032021759	-0.3205668361	 0.175188
O	 0.8487002967	 2.0227566475	 0.6915275196	-0.172297
C	 0.9127122845	 3.4418583619	 0.5323939243	-0.207323
C	 2.3032354983	 3.8674563649	 0.192190919	 0.234409
C	 3.4329066396	 3.1280973645	 0.0838897585	-0.099013
O	 4.4559410336	 3.9762690038	-0.2426794437	-0.134858
C	 3.8752897454	 5.1924628468	-0.3104039174	 0.078154
N	 2.6062385795	 5.2007357526	-0.0649245399	-0.307671
H	-0.070129222	 1.9396260712	-1.1398613853	 0.085809
H	 0.2093866975	 3.7796855152	-0.240419957	 0.133926
H	 0.5901200684	 3.8822066974	 1.4809090688	 0.149987
H	 3.677288724	 2.0875195787	 0.1991589163	 0.171498
H	 4.5144034348	 6.0246670724	-0.5601493491	 0.158754
