21
gdb 75147	3.10464	1.06827	1.0313	0.8538	90.88	-0.232	0.0288	0.2608	1308.6751	0.180803	-349.948007	-349.938468	-349.937524	-349.981828	36.858	
C	 0.6058642947	 1.4213507757	 0.1242352837	-0.496343
C	 0.1246111814	 0.0112354002	-0.0096610571	 0.337779
C	 0.205936172	-0.7771911764	-1.0829588506	-0.167424
C	-0.4306397231	-2.1250635373	-0.8700209742	-0.288927
C	-0.6285478464	-2.1919376562	 0.6855551134	 0.11546
C	 0.5600619893	-2.9452029479	 1.3230152811	-0.42575
C	-0.5922394727	-0.6891359886	 1.1238108238	-0.33483
C	-1.8802392598	-2.8465014814	 1.0560888884	 0.288766
C	-2.9076560541	-3.3903358848	 1.365199986	-0.468879
H	 1.3305700022	 1.5184036322	 0.9427919108	 0.124235
H	 1.0807863725	 1.7747857732	-0.7950686235	 0.123045
H	-0.2220563924	 2.1016460008	 0.3625366185	 0.125993
H	 0.646954602	-0.4854410782	-2.0307134707	 0.084346
H	-1.3925402152	-2.199524527	-1.3928724522	 0.114575
H	 0.182849469	-2.9607247119	-1.226593697	 0.103952
H	 1.5002741304	-2.4589427726	 1.0437880806	 0.118104
H	 0.4786695375	-2.9481127462	 2.413660112	 0.120811
H	 0.5898686149	-3.9833977812	 0.9806059676	 0.121679
H	-0.0890199337	-0.5672948411	 2.0909017249	 0.101315
H	-1.6058061796	-0.2870170295	 1.249112394	 0.113899
H	-3.816589789	-3.8677542817	 1.6355165504	 0.188192
