17
gdb 18455	4.13992	1.4209	1.36678	2.5308	68.9	-0.2421	-0.0236	0.2185	979.3584	0.141798	-363.834475	-363.826885	-363.825941	-363.866586	28.432	
C	 0.8000898757	 1.1942465587	-0.7088935846	-0.376178
C	 0.0539008629	-0.0154253208	-0.1326597576	-0.227643
C	 0.7686037382	-0.6053165832	 1.0681298982	 0.027968
C	 0.6729606884	-2.02113675	 1.543730156	-0.197708
N	 1.9936230209	-1.4092871027	 1.0318430742	-0.136254
C	 1.9192098664	-2.2894493755	-0.1899393062	-0.295304
C	 0.6610361051	-2.970356732	 0.3815511486	 0.408954
O	 0.0652393946	-3.9785843482	 0.1336900662	-0.305744
H	 1.7926705873	 0.9117041561	-1.0740688802	 0.128032
H	 0.2452948557	 1.6353732036	-1.5417788037	 0.12052
H	 0.9393311383	 1.9705824478	 0.0510154821	 0.122655
H	-0.9452084398	 0.2899336576	 0.2010853937	 0.113657
H	-0.1107790594	-0.7647029023	-0.9118666074	 0.115214
H	 0.8270975305	 0.0978126776	 1.8996412956	 0.107858
H	 0.4927743631	-2.2768567238	 2.582351291	 0.119922
H	 1.8660739828	-1.7685832023	-1.1483105336	 0.129925
H	 2.7639498893	-2.9837517806	-0.2001468522	 0.144127
