20
gdb 111146	3.71673	1.17856	1.01049	2.3866	76.	-0.2314	0.0622	0.2936	1225.4427	0.169769	-440.188325	-440.179197	-440.178252	-440.222394	34.808	
C	 0.2673016353	 0.2781941921	-1.0123723321	-0.210974
O	 1.3157294121	 0.4077910479	-0.0645496033	-0.286034
C	 1.4533794743	-0.4690996735	 1.0007249282	 0.219823
C	 0.2754271921	-0.9354311483	 1.9120211593	-0.171124
N	-0.158465473	-1.8380408093	 0.7682640846	-0.350493
C	 1.349934772	-2.0221536896	 0.8744049084	-0.142653
C	 1.2199268431	-2.0883818755	 2.4296054217	 0.446818
C	 2.3793079405	-1.8478621049	 3.3891721644	-0.485907
O	 0.5490107482	-3.2775425512	 2.8175847777	-0.474585
H	-0.7220806075	 0.3687291556	-0.5535891918	 0.116958
H	 0.4200321819	 1.1001676091	-1.7185429592	 0.106999
H	 0.3049688846	-0.6757418888	-1.5471674798	 0.118187
H	 2.3334117583	-0.1027353205	 1.5256328064	 0.076844
H	-0.4383618125	-0.333332078	 2.4792959181	 0.072963
H	-0.6023384131	-2.6656144124	 1.1702730693	 0.222812
H	 1.8984351323	-2.7026100311	 0.2204661494	 0.080362
H	 2.9804291973	-0.9692320561	 3.1532687153	 0.133129
H	 1.9955076389	-1.7138191856	 4.4086793441	 0.110766
H	 3.0345220772	-2.7240920444	 3.3958476256	 0.134228
H	 0.2643608381	-3.1733429355	 3.7316162135	 0.281881
