18
gdb 71438	3.99155	1.37196	1.23466	4.0464	75.52	-0.228	0.0289	0.2569	1045.9861	0.149444	-401.962742	-401.955332	-401.954388	-401.994196	29.863	
C	 0.0054732855	 1.5443054048	 0.0858902678	-0.504235
C	 0.0018722573	 0.0436233864	 0.0562725204	 0.317628
C	-1.2417067052	-0.8415342014	-0.0471576966	-0.285103
C	-0.434373129	-2.0167109513	 0.6253948663	-0.178798
C	 0.6460726333	-0.9704953935	 1.0080590371	-0.129025
C	 1.2363601267	-0.7729970741	-0.3509295231	-0.053126
N	 1.1055340651	-1.9987210216	-1.0904996008	-0.316752
C	 0.1465438105	-2.8256475286	-0.5376311561	 0.410041
O	-0.2143533936	-3.8982510895	-0.9652691452	-0.382194
H	 1.002023683	 1.9361477152	 0.3167083286	 0.11949
H	-0.2967279088	 1.9590783623	-0.8832236814	 0.124662
H	-0.6864778598	 1.9309049113	 0.8428594318	 0.121686
H	-2.0223057321	-0.4865402771	 0.6302224853	 0.111202
H	-1.6784831454	-1.0261833053	-1.0350735237	 0.104948
H	-0.9408896255	-2.6111852168	 1.379917422	 0.093022
H	 1.1643754669	-0.8538624998	 1.9514179651	 0.093266
H	 2.171554066	-0.2373146242	-0.4614229797	 0.102621
H	 1.3849430151	-2.1096695568	-2.0518499378	 0.250666
