22
gdb 32519	1.69673	1.62985	0.952	1.7247	89.56	-0.1954	0.0518	0.2472	1342.7309	0.194765	-367.263236	-367.253388	-367.252444	-367.298402	36.552	
C	-0.0572879247	 1.5585100771	 0.0598131427	-0.36301
C	-0.033149073	 0.0215796937	-0.0292983661	-0.304323
C	 0.6912921127	-0.4974878641	-1.2408041581	 0.189874
C	 0.1063038351	-0.8681520901	-2.431753742	-0.171017
N	 1.0986298179	-1.2353781126	-3.3041794901	-0.244209
C	 2.3175908261	-1.1063569962	-2.6892154357	-0.171019
C	 2.1095880889	-0.6524305662	-1.4052176574	 0.189876
C	 3.1762512518	-0.422886649	-0.3700694373	-0.304326
C	 3.3609327224	-1.6087218136	 0.5944883987	-0.363011
H	 0.9564761194	 1.9699225956	 0.0943539665	 0.119474
H	-0.5555468138	 1.9886156543	-0.8148018976	 0.11387
H	-0.5891391173	 1.8947414192	 0.9564879546	 0.103459
H	 0.423131303	-0.380912411	 0.8833555487	 0.099495
H	-1.0648232342	-0.349884388	-0.0377170543	 0.095238
H	-0.931928833	-0.8961639749	-2.7243033538	 0.11035
H	 0.955005438	-1.5496470457	-4.2469832257	 0.257396
H	 3.2322644301	-1.3485846167	-3.2078625598	 0.110349
H	 4.1302032244	-0.2213882971	-0.87184742	 0.095239
H	 2.9477155988	 0.477862325	 0.2126414614	 0.099491
H	 2.4347700377	-1.8285658116	 1.1349160154	 0.119472
H	 3.6423560173	-2.5130940763	 0.0457490526	 0.11387
H	 4.1419925124	-1.3998861618	 1.3335937971	 0.103462
