21
gdb 114707	3.57825	1.03173	0.96113	1.0066	77.73	-0.2367	0.0746	0.3113	1296.2153	0.182758	-424.215694	-424.206691	-424.205747	-424.249155	35.005	
O	 0.2227725426	 1.0698957162	-0.60767303	-0.4199
C	-0.0293596741	-0.2971377727	-0.3150510878	-0.088991
C	-1.4771533254	-0.4132645963	 0.1615903136	 0.018356
C	-2.5199329148	-0.0089661305	-0.9286362316	-0.23483
C	-3.1857379168	-1.2941293092	-1.3903011446	-0.105302
C	-2.2982742477	-2.4249720968	-1.8860957265	-0.324352
C	-2.7717452262	-2.4224102916	-0.4678313635	 0.426349
O	-3.6198216549	-3.4737989955	-0.1137215438	-0.472592
C	-1.8510130017	-1.8535082056	 0.6056893842	-0.317409
H	 1.1077267988	 1.1412166143	-0.976510931	 0.286593
H	 0.1440544382	-0.926601168	-1.2016957605	 0.087456
H	 0.6426037751	-0.6618555792	 0.47870051	 0.085261
H	-1.5584537453	 0.272273769	 1.0107069149	 0.084321
H	-3.2749310203	 0.6579235669	-0.4980875539	 0.094129
H	-2.0361916276	 0.5498033565	-1.736027018	 0.111265
H	-4.1948723722	-1.2547188551	-1.7861419149	 0.081487
H	-2.7785769917	-3.155756485	-2.5274011495	 0.118776
H	-1.2546821527	-2.2405654165	-2.1180069269	 0.106697
H	-4.2207522769	-3.1527969387	 0.5684410783	 0.275764
H	-0.9693192359	-2.482261567	 0.7778763907	 0.100185
H	-2.4049535204	-1.8291345951	 1.5527617406	 0.086736
