18
gdb 44452	4.09842	1.42704	1.30444	2.8772	77.56	-0.2604	0.0254	0.2858	1004.9864	0.150382	-401.896712	-401.890117	-401.889173	-401.927523	27.717	
N	-0.0605055252	 1.2598214462	-0.1014423371	-0.529709
C	-0.0189462034	 0.0049275031	-0.0127858429	 0.406175
C	-1.2549990914	-0.9258338761	-0.0783000062	-0.444296
C	-0.5462811858	-2.2229786177	-0.3711220462	 0.305507
C	-0.423790595	-3.7557002223	-0.1222978109	-0.320364
C	 0.9977207928	-3.2814301647	-0.6389340066	-0.102038
C	 0.2469939256	-2.4563477142	-1.705796005	-0.252809
C	 0.7945753985	-2.089948879	 0.3430763983	 0.126856
O	 1.1574305181	-0.724053095	 0.1407255881	-0.268579
H	 0.8765298031	 1.6588888085	-0.0214898559	 0.225724
H	-1.7620786898	-0.9254371481	 0.8932355885	 0.132025
H	-1.9535304543	-0.5629767907	-0.8330067682	 0.138498
H	-0.488566183	-4.09536475	 0.9149480511	 0.102888
H	-0.9686773354	-4.4177066793	-0.7980262676	 0.107386
H	 1.8778513947	-3.9109753664	-0.7718181473	 0.08207
H	-0.280154324	-3.0211549304	-2.478155803	 0.093489
H	 0.7731245549	-1.5980056077	-2.1240284617	 0.117348
H	 0.8511232598	-2.3271204264	 1.4102503825	 0.079829
