20
gdb 59134	4.11748	1.13394	1.03148	1.5397	78.83	-0.223	0.0606	0.2836	1223.9158	0.1691	-403.027216	-403.018916	-403.017972	-403.06009	32.456	
C	 0.9335051445	-0.325629843	-1.3396692764	-0.387781
C	 0.1139000989	 0.0446337082	-0.1009370054	 0.079661
C	-0.0074796144	 1.5631614015	 0.0495506891	-0.387779
N	-1.2324807349	-0.5344521973	-0.2255676922	-0.129741
C	-2.0335997673	-0.6145005447	 1.0336051046	-0.074147
C	-2.7998259418	-1.8667538319	 0.52414121	 0.08353
O	-2.589362796	-2.6502258981	 1.7318047944	-0.329453
C	-1.3408901125	-1.9186194954	 1.5827654219	 0.074637
C	-1.3401450931	-2.0064419964	 0.0097319703	-0.074147
H	 1.9336094327	 0.1153069579	-1.2867232376	 0.111944
H	 1.0527427581	-1.4093593048	-1.4351044495	 0.11069
H	 0.4380499625	 0.0412932853	-2.2441144051	 0.124289
H	 0.636771443	-0.3506651775	 0.7906816395	 0.054714
H	-0.5315376159	 1.9876336236	-0.8126068335	 0.124288
H	-0.5640077565	 1.8357270728	 0.9516483963	 0.11069
H	 0.9823940927	 2.0246231386	 0.1176729063	 0.111943
H	-2.4173670885	 0.2486183518	 1.5775005469	 0.094487
H	-3.7441741112	-1.9434837113	-0.0111398387	 0.105937
H	-0.5636478018	-2.0802436893	 2.3289094086	 0.101751
H	-0.9140172986	-2.7690057303	-0.6421768495	 0.094487
