14
gdb 9573	4.40576	1.31659	1.26292	4.6259	70.34	-0.266	0.0056	0.2716	979.2627	0.106237	-341.543769	-341.535701	-341.534756	-341.575953	29.811	
N	-0.0374036927	 1.4494403632	 0.0496706333	-0.545501
C	 0.0194269787	 0.0102712227	 0.0235949613	 0.103808
C	-0.4524315913	-0.6711493773	 1.2866927089	-0.29704
C	-1.3456383837	-0.704027717	 0.0656967074	-0.205095
C	-2.551515827	 0.0718592828	 0.0135303236	 0.304128
N	-3.5406903826	 0.6675151542	-0.0535909747	-0.336755
C	 1.0472623029	-0.6262923161	-0.7651329804	 0.292356
C	 1.9180192103	-1.1167821604	-1.4348949048	-0.450363
H	 0.8285779812	 1.8233678402	 0.4259541406	 0.24335
H	-0.1419640132	 1.8185004931	-0.8908222216	 0.247264
H	 0.0164465135	-1.6028242491	 1.5769942594	 0.139808
H	-0.7470625026	-0.0083481053	 2.0904507126	 0.152209
H	-1.3959613581	-1.6425259301	-0.4743416332	 0.148057
H	 2.6866215547	-1.5514551708	-2.0253173424	 0.203776
