18
gdb 64697	2.92635	1.02437	0.93671	3.4019	79.22	-0.2519	0.001	0.2529	1313.4723	0.14457	-401.913421	-401.903821	-401.902876	-401.948165	34.859	
C	 0.345168814	 1.3904377254	-0.0588144163	-0.463354
C	-0.0108513497	-0.0822248168	-0.0322568355	 0.289955
C	-1.4548364577	-0.4035931511	 0.3590874455	-0.403105
C	-1.7978164477	 0.0669238531	 1.696953188	 0.30771
C	-2.0576210879	 0.4631860466	 2.8014010237	-0.447733
C	 0.6972255626	-1.0182737197	-0.9765684568	-0.289432
N	 0.9738021974	-1.0446101334	 0.4416787898	-0.078682
C	 2.2078919421	-0.7701906723	 1.0033910278	 0.135166
O	 3.2682702901	-1.1173593886	 0.5431667525	-0.289744
H	 1.3924781303	 1.5388206059	-0.3354231705	 0.135496
H	-0.2791401045	 1.9153561397	-0.7894561258	 0.12937
H	 0.1715309764	 1.8505489246	 0.9181509326	 0.145502
H	-2.1303320449	 0.0507183913	-0.3777009906	 0.134995
H	-1.6028598719	-1.487400264	 0.3010838304	 0.140814
H	-2.2992852531	 0.8031149689	 3.7780438062	 0.201869
H	 0.1741320738	-1.8831785449	-1.3769497128	 0.124149
H	 1.4707519779	-0.6083670528	-1.6213603145	 0.136435
H	 2.106688453	-0.250440052	 1.9747731465	 0.09059
