18
gdb 18931	3.50939	2.43887	1.959	1.2971	70.51	-0.2556	0.0783	0.3339	754.9497	0.156847	-347.766197	-347.760127	-347.759183	-347.795889	25.83	
O	-0.0846088623	 1.3936719769	 0.0202372375	-0.450277
C	-0.040503839	-0.0215370428	 0.0569126877	 0.16982
C	 0.3806677731	-0.6504474668	 1.4084894602	-0.104433
C	-0.6175502261	 0.021398536	 2.3882689035	-0.230734
C	-1.6520961753	-0.8205799384	 1.628059781	-0.019271
C	-0.5744186841	-1.9254097136	 1.3815267585	-0.021969
C	-1.1231222567	-2.1370111524	-0.0391286273	-0.246752
C	-1.4562716318	-0.6250851822	 0.0604689244	-0.057588
H	 0.8076662874	 1.7244391976	 0.1670356883	 0.278678
H	 0.5567268767	-0.4020710875	-0.7835124167	 0.058477
H	 1.4467192115	-0.7286091418	 1.6275436222	 0.052527
H	-0.4959068166	-0.3461276387	 3.4115334285	 0.089326
H	-0.688264797	 1.1102432118	 2.3771689132	 0.102122
H	-2.6582967763	-1.0349697445	 1.9864547713	 0.063111
H	-0.3631885207	-2.7291522895	 2.0866296071	 0.064567
H	-0.4628163334	-2.4696243279	-0.8470778366	 0.087164
H	-2.0177340344	-2.7660362302	-0.015782685	 0.096937
H	-2.199611425	-0.142202176	-0.5719526376	 0.068295
