15
gdb 26982	3.37442	1.28838	0.96027	2.2167	72.72	-0.1997	0.0181	0.2178	1156.7838	0.11258	-416.80353	-416.795211	-416.794266	-416.83686	30.872	
N	-0.1022028131	 1.247328503	-0.5745118194	-0.602314
C	-0.1103482093	-0.0824250961	-0.2022584529	 0.291759
C	-1.0731205232	-1.0311359238	-0.0207920898	 0.186513
C	-2.558107638	-0.9806291494	-0.2467010268	-0.46367
C	-2.974926663	-0.008394093	-1.2557118181	 0.299507
C	-3.3140962663	 0.802055287	-2.0775901569	-0.457978
N	-0.4626947077	-2.1847294643	 0.4744319895	-0.302326
C	 0.7867031714	-1.8907487556	 0.5565710189	 0.048169
O	 1.0885827491	-0.6182910297	 0.1619410958	-0.17307
H	 0.725387603	 1.507347133	-1.0965609131	 0.256067
H	-0.9486760989	 1.5015241982	-1.0702801936	 0.264263
H	-2.8878851706	-1.9818286615	-0.5495418978	 0.157507
H	-3.0883572681	-0.766546949	 0.6929852162	 0.147092
H	-3.6416508979	 1.4943742011	-2.8134428026	 0.202096
H	 1.6125280225	-2.5026658698	 0.8799263406	 0.146384
