19
gdb 79450	3.36144	1.51292	1.29629	2.3785	73.49	-0.2411	0.0668	0.3079	1026.4666	0.161101	-422.983066	-422.975939	-422.974995	-423.014202	29.636	
C	-0.0874340793	 1.5479639929	 0.0467831785	-0.416946
C	-0.023516908	 0.023687728	 0.0424475534	-0.003352
C	 0.7528913792	-0.5648907897	-1.1557619121	-0.071022
C	 2.0838325028	-0.4417967457	-0.379585293	 0.097559
O	 2.5430525914	-1.7401035702	-0.8104486116	-0.314593
C	 1.1137262205	-2.063764995	-0.8478421493	 0.004575
C	 0.8299030745	-2.1287918304	 0.6754976162	 0.183644
O	 1.6731433675	-3.0250933257	 1.3450181945	-0.45826
C	 1.1182343248	-0.6191208011	 0.8822202195	-0.143023
H	 0.8905070487	 2.0011695715	-0.1473924987	 0.117603
H	-0.7785947837	 1.9126525595	-0.7209984144	 0.117404
H	-0.4382625313	 1.9201336	 1.0148944042	 0.120085
H	-1.0208428231	-0.3899872387	 0.231266128	 0.068928
H	 0.6202838538	-0.2619796174	-2.1938279648	 0.077821
H	 2.8269560361	 0.3501930219	-0.4321690742	 0.092296
H	 0.8749793305	-2.9111680142	-1.4883641244	 0.085971
H	-0.2000910654	-2.3927210385	 0.9277496721	 0.084659
H	 2.5367189599	-2.921501562	 0.9191818382	 0.284218
H	 1.371883231	-0.2854153052	 1.886779738	 0.072432
