19
gdb 57279	2.24946	1.42898	1.26983	2.9742	74.83	-0.2597	0.0297	0.2894	1120.2029	0.158769	-419.197461	-419.187914	-419.18697	-419.231879	34.757	
C	-0.0754240266	 1.5206139342	-0.0808095497	-0.410605
C	 0.0084789088	-0.0100940055	 0.0236451384	 0.052007
N	 0.6984496818	-0.3811254799	 1.2632961434	-0.524108
C	-1.3612661317	-0.5803378817	-0.0401115521	 0.268521
N	-2.4119542601	-1.0640552523	-0.0367038248	-0.358776
C	 0.8426839579	-0.5551062458	-1.1548124274	 0.17674
C	 0.8162060175	-2.0716489246	-1.4508164792	-0.323373
C	 0.2127844153	-1.6468766142	-2.8052882524	-0.062571
O	 0.2469623949	-0.2490757206	-2.4263243027	-0.294168
H	 0.9291949469	 1.9373849209	 0.0285917251	 0.133752
H	-0.4861581814	 1.8078958426	-1.0501976783	 0.159788
H	-0.7140567585	 1.9306349416	 0.7068899924	 0.126639
H	 0.2274327832	 0.0366400923	 2.0606117953	 0.242691
H	 0.6606640769	-1.3872622945	 1.4016220718	 0.242284
H	 1.8457000056	-0.1223060838	-1.053525436	 0.092642
H	 1.7932558598	-2.5530353752	-1.494689805	 0.118163
H	 0.1479176598	-2.6586813854	-0.8178589268	 0.125434
H	 0.83862561	-1.8401829435	-3.6836470283	 0.108519
H	-0.8092118602	-1.9849284045	-3.0022882638	 0.126419
