17
gdb 77835	3.02857	1.32424	1.04708	2.6277	80.03	-0.2429	0.0041	0.247	1144.335	0.134398	-384.613854	-384.605528	-384.604584	-384.646485	32.013	
C	-0.5009341065	 1.4431785105	-0.1837810516	-0.453372
C	-0.0771481392	-0.0167381962	-0.1022329584	 0.034633
C	 1.2457163591	-0.5552501707	-0.7763815161	-0.202189
C	 2.0748912572	-0.0090973497	 0.4561211742	-0.19411
C	 2.4521686487	 1.3833170311	 0.5806770686	 0.292022
C	 2.8995021226	 2.491970479	 0.7181043305	-0.40652
C	 0.7565425812	-0.5916682053	 1.1096394495	-0.202152
C	 1.0052666094	-1.7648424829	 0.1446768613	 0.439821
O	 0.9839186786	-2.9542636772	 0.1161598053	-0.315334
H	-0.8790561413	 1.6568928129	-1.1893125435	 0.122206
H	-1.3212823895	 1.624139812	 0.5191205682	 0.122215
H	 0.2992255998	 2.1456111259	 0.0367267477	 0.151112
H	-0.9448167901	-0.6421248385	-0.3393211936	 0.094848
H	 1.5323054525	-0.5218416192	-1.8252902749	 0.099535
H	 2.9617244507	-0.6135036229	 0.6745361691	 0.121729
H	 3.2607012391	 3.4844076165	 0.8308886095	 0.196035
H	 0.4970836878	-0.5989358153	 2.1660944142	 0.09952
