21
gdb 71014	3.68786	1.41059	1.27593	1.9088	82.71	-0.2436	0.0804	0.324	1072.5465	0.184219	-387.032775	-387.025317	-387.024373	-387.064024	31.358	
C	-0.0294654981	 1.5464081864	 0.0206891356	-0.493969
C	-0.0282844237	 0.0350360268	 0.002148359	 0.33894
C	 0.3132530049	-0.7696811495	-1.3375301198	-0.373595
C	-0.3935452625	-1.8977443646	-0.5502260676	 0.283185
C	-0.7614533837	-3.3738288675	-0.3225063037	-0.222497
O	-0.2453289641	-3.2513857244	 1.0461843811	-0.318044
C	 0.5770909036	-2.1327054138	 0.588750388	 0.160189
C	 0.7342969395	-0.7058871939	 1.1570563524	-0.31999
C	-1.332189996	-0.8079092225	 0.0180729201	-0.270261
H	 0.9852765259	 1.9470903327	-0.084400581	 0.11667
H	-0.6359273259	 1.9555514567	-0.7941914564	 0.11403
H	-0.437524346	 1.9259436188	 0.964715155	 0.117826
H	-0.2428432101	-0.3535055979	-2.1814048327	 0.098902
H	 1.3617567465	-0.9227249101	-1.6099060177	 0.094404
H	-1.8206218285	-3.6462003022	-0.3370255632	 0.108895
H	-0.1741988474	-4.1014546379	-0.8984089028	 0.100739
H	 1.5463745927	-2.5383534314	 0.2656430057	 0.067919
H	 1.7844665218	-0.4162401433	 1.2583986834	 0.093856
H	 0.2377448464	-0.5364231176	 2.116622359	 0.113646
H	-1.8160996381	-0.9926702836	 0.9805112412	 0.100268
H	-2.0642445373	-0.4760027112	-0.7239655656	 0.088888
