19
gdb 57951	3.20822	1.01625	0.89957	3.2131	75.69	-0.242	0.0151	0.2571	1389.9481	0.156472	-456.388888	-456.378097	-456.377153	-456.426575	36.295	
C	-0.2023888476	 1.3649316117	 0.144363967	-0.336711
N	-0.0482928552	-0.0651226288	-0.0608304961	-0.128589
C	 0.6023143627	-0.8016748927	 1.0065983382	-0.333095
C	-0.4557139773	-0.5951658812	-1.2437809004	 0.533805
O	-0.9347121792	 0.0091332271	-2.1677215454	-0.391176
O	-0.3577665573	-1.9897745114	-1.2380724917	-0.281984
C	 0.1873375428	-2.6126876141	-2.3354829057	 0.387252
C	-0.441583532	-3.9654870934	-2.5222624645	-0.461707
N	 1.1063853374	-2.0498989835	-2.9909715252	-0.472628
H	 0.777191866	 1.8467016741	 0.2554888858	 0.12627
H	-0.71530705	 1.7880755393	-0.7170864751	 0.171999
H	-0.7852798814	 1.5589348209	 1.053146484	 0.1217
H	 0.0350267634	-0.6993530394	 1.940590883	 0.123869
H	 0.6704613111	-1.8548219231	 0.7495604563	 0.156996
H	 1.6130223834	-0.4102400384	 1.1806593528	 0.127277
H	-1.4964017243	-3.8484091196	-2.790759054	 0.15607
H	 0.0683156741	-4.5310268746	-3.3037016235	 0.128964
H	-0.407002403	-4.5322788965	-1.5868277544	 0.145318
H	 1.4128848364	-2.6414667565	-3.7606890711	 0.226368
