23
gdb 39625	3.83238	1.08771	1.023	0.1915	90.12	-0.2729	0.0905	0.3633	1293.1473	0.208043	-351.098697	-351.090688	-351.089744	-351.131743	32.24	
C	-0.0827240478	 1.5175031849	-0.011947772	-0.210133
C	 1.4671163963	 1.513777598	-0.0942985923	-0.230294
C	 1.4594781598	 0.0928556767	 0.5455479721	-0.117944
C	-0.0407140752	-0.0264054739	 0.1409673516	-0.230299
C	 2.4362945909	-0.9372218594	 0.0622963154	 0.378609
C	 3.9913057075	-0.9211839732	 0.2309815782	-0.25738
C	 3.6709106394	-2.2363897116	-0.5307986804	-0.044232
C	 2.4973155814	-2.4475860625	 0.4645963158	-0.25739
C	 2.6902947484	-1.4109490003	-1.4086419365	-0.253845
H	-0.4376779873	 2.004472686	 0.9011114027	 0.10023
H	-0.6355403206	 1.9292182659	-0.8596631301	 0.094325
H	 1.813955438	 1.4760289965	-1.1319096822	 0.099562
H	 2.0131973314	 2.3040934455	 0.4264239557	 0.093745
H	 1.5410719496	 0.1795785581	 1.6362248562	 0.064742
H	-0.72508072	-0.4929310199	 0.8536745977	 0.093744
H	-0.1486525276	-0.5286922284	-0.8256842575	 0.099565
H	 4.5360687079	-0.1507036073	-0.3229268337	 0.085644
H	 4.3722270195	-1.0228211842	 1.2518515784	 0.083625
H	 4.3833519638	-2.9864939076	-0.8757218971	 0.067772
H	 2.7646697175	-2.6652507038	 1.5032258452	 0.083625
H	 1.6703626538	-3.0785922514	 0.1251824441	 0.085644
H	 1.8817938522	-1.9659529952	-1.8939539556	 0.085344
H	 3.138528737	-0.6819521772	-2.0904633849	 0.085344
