17
gdb 49275	2.01613	1.64805	1.05639	3.6472	82.31	-0.2495	-0.0585	0.191	1156.7541	0.135079	-384.683131	-384.674582	-384.673638	-384.716675	31.572	
O	-0.1627228555	 0.0178538519	-0.4930168916	-0.267441
C	-0.0553124759	 1.1970714098	-0.2406664026	 0.07343
C	 1.2204083905	 1.8794186274	-0.014688118	 0.248336
C	 1.3606040627	 3.1903535375	 0.2223152017	-0.144214
C	 2.800235877	 3.5887758535	 0.3989977918	-0.255452
C	 3.5703267001	 2.3538934489	-0.1301414518	-0.230222
C	 2.5680053366	 1.1606169366	-0.0134979571	-0.267359
C	 2.7520473029	 0.3779912851	 1.2079923144	 0.346094
C	 2.9192583607	-0.2411892956	 2.2246258598	-0.487789
H	-0.9483005545	 1.8591448011	-0.1802637985	 0.069247
H	 0.5336067177	 3.8892607552	 0.3016914888	 0.113541
H	 3.0546330512	 4.5098907764	-0.1357848351	 0.11781
H	 3.0074021907	 3.7813583953	 1.4610578971	 0.131971
H	 3.8123014605	 2.502833764	-1.1865379843	 0.11209
H	 4.5011449844	 2.1623928686	 0.4050157008	 0.119149
H	 2.6483772724	 0.4850864053	-0.8717774007	 0.123067
H	 3.0554928783	-0.8048039911	 3.1141140554	 0.197743
