15
gdb 262	8.69227	1.82351	1.56698	3.4104	53.75	-0.243	0.0359	0.2789	778.0458	0.130316	-287.736841	-287.729087	-287.728143	-287.769373	26.19	
C	-0.0178915212	 1.5625758257	 0.0243885815	-0.387132
C	-0.0141971191	 0.033709809	 0.0799411391	-0.149245
C	-1.4122068601	-0.5689615941	-0.0754047673	-0.291844
C	-1.3871776885	-2.0943346363	-0.1630469253	 0.404911
N	-2.5503677307	-2.7089439266	 0.2104590045	-0.521937
O	-0.4168127195	-2.7221278928	-0.5398705115	-0.357264
H	 0.9938245424	 1.9634976954	 0.1390385852	 0.115432
H	-0.4123169294	 1.925271165	-0.9317790232	 0.112378
H	-0.636922395	 1.9931435992	 0.819944014	 0.109786
H	 0.6258703864	-0.3800702046	-0.7045671256	 0.125611
H	 0.4185998934	-0.3047251703	 1.0287081332	 0.103817
H	-2.0703809225	-0.2492796465	 0.7424483331	 0.099234
H	-1.8758752317	-0.1983622675	-1.0010067672	 0.123099
H	-3.381091594	-2.1896158287	 0.4332724954	 0.25493
H	-2.6270163404	-3.7029408568	 0.0685046442	 0.258224
