21
gdb 76808	2.71701	1.55854	1.30442	1.4587	84.24	-0.2285	0.0659	0.2944	1075.203	0.182911	-386.967194	-386.958978	-386.958034	-386.999516	33.064	
C	-0.20910391	 1.64830547	-0.0717514606	-0.407699
C	-0.0501600774	 0.1337356595	 0.0351609968	-0.088877
C	 0.9430146423	-0.5767515042	-1.0226152576	-0.017657
O	 1.4972590885	 0.1847851793	-2.0659455019	-0.426092
C	 1.8880657905	-0.8184430629	 0.1563469039	 0.310395
C	 2.6256290714	-1.7238184476	 1.1923631345	-0.316116
C	 2.0892862908	-0.4434693497	 1.9782744249	-0.083107
C	 2.6284185981	 0.3973015469	 0.8073637311	-0.231807
C	 0.7523301326	-0.6348108005	 1.1712852224	-0.029462
H	 0.7122590636	 2.1553501919	-0.3610711002	 0.136714
H	-0.9573934091	 1.892861168	-0.8349383836	 0.103423
H	-0.55803331	 2.0717115458	 0.8754421947	 0.11838
H	-1.0490697159	-0.3111231534	-0.0109707222	 0.072682
H	 0.4880223849	-1.5053434349	-1.3957648252	 0.073407
H	 0.8434217959	 0.2664503702	-2.767587727	 0.285452
H	 2.1464476168	-2.6775072813	 1.4290069384	 0.093831
H	 3.7138688355	-1.8224809718	 1.1256630558	 0.092123
H	 2.2258658147	-0.2574203624	 3.0479847971	 0.065913
H	 3.712578892	 0.4125172199	 0.6671230331	 0.087525
H	 2.2074932491	 1.3904399587	 0.6813094039	 0.098694
H	 0.2103216756	-1.5452667514	 1.4444283219	 0.062277
