22
gdb 59940	2.62054	0.96197	0.87324	3.4956	82.88	-0.2926	0.0208	0.3134	1466.2194	0.191038	-404.372393	-404.361397	-404.360453	-404.408275	40.451	
C	 0.4084703401	-0.0134284184	 1.51668037	-0.393388
C	-0.0452080589	 0.0710662032	 0.0507096268	 0.019745
C	 1.0518855256	-0.467775499	-0.8796841061	-0.393482
C	-1.3937445164	-0.6611761833	-0.1010280937	-0.203814
C	-2.1683692845	-0.4843417475	-1.433825887	 0.177905
C	-2.446488699	 0.9816069434	-1.7883332438	-0.399509
O	-1.4825593022	-1.0307625934	-2.5558003183	-0.430967
C	-3.4669700524	-1.195503298	-1.2811709006	 0.256284
N	-4.4583250019	-1.7768461583	-1.1573766893	-0.337035
H	 1.3554659396	 0.5159579616	 1.6613899395	 0.115116
H	-0.3303820209	 0.4255202086	 2.1951325322	 0.11318
H	 0.562403104	-1.0558308674	 1.8201786054	 0.11587
H	-0.2009006661	 1.1322709118	-0.1820281956	 0.080999
H	 1.2394851643	-1.5305600055	-0.6799634005	 0.104753
H	 0.7800945849	-0.3673952885	-1.9313665593	 0.135931
H	 1.9927700166	 0.066385194	-0.7111668444	 0.110786
H	-1.2403802689	-1.7382695907	 0.0571185264	 0.101025
H	-2.0667148576	-0.337624737	 0.7022929641	 0.116979
H	-1.5031939721	 1.4961376055	-1.9804985274	 0.139231
H	-3.0585696664	 1.033912374	-2.6908270914	 0.145537
H	-2.9722564513	 1.4848683114	-0.9736672861	 0.133268
H	-1.2886208465	-1.9573243365	-2.3730192412	 0.291588
