19
gdb 108208	3.14144	1.45893	1.33616	3.8285	70.01	-0.2514	0.0806	0.332	1029.8155	0.161106	-460.166745	-460.159105	-460.158161	-460.198774	30.301	
O	-0.0400229897	 1.3985495045	-0.0365263216	-0.41925
C	-0.0070749369	-0.0039883897	 0.1018488307	-0.123516
C	-1.3957033026	-0.6095346096	 0.0924613785	 0.481142
C	-1.6118609832	-2.125744029	 0.017471284	-0.288817
C	-3.1422340328	-1.9199504374	-0.0122160935	-0.100978
C	-3.3069611424	-1.06315821	 1.2553930459	-0.075103
O	-2.1307125074	-0.2289807179	 1.2462146982	-0.296835
C	-3.2504490505	-0.9620547829	-1.211603537	-0.075693
O	-2.0774820345	-0.1340077233	-1.0759461519	-0.321519
H	-0.6807714466	 1.5857052106	-0.7327642729	 0.295118
H	 0.5756194281	-0.4819797148	-0.7017318334	 0.088291
H	 0.4755153194	-0.2289915001	 1.05711062	 0.116701
H	-1.2058869405	-2.5754048561	-0.8907309366	 0.109668
H	-1.253265351	-2.6545487392	 0.9027334429	 0.111524
H	-3.7776006985	-2.8035540484	-0.0643958106	 0.08263
H	-4.2057113244	-0.4357333625	 1.2333718266	 0.10563
H	-3.3219090408	-1.6664954586	 2.1719851071	 0.101382
H	-3.2183104706	-1.4867618887	-2.1748116123	 0.102214
H	-4.1504235552	-0.3372029471	-1.1801349243	 0.107411
