13
gdb 27376	2.05742	1.97924	1.01513	5.0893	62.51	-0.2646	-0.0462	0.2184	1077.4168	0.089301	-489.957189	-489.949546	-489.948602	-489.989968	27.419	
C	-0.0102460428	 1.4547815367	 0.1273032668	-0.471753
C	-0.022430461	-0.0245447477	-0.0502013579	 0.405905
N	-0.1472686536	-0.6232089328	-1.1574637661	-0.322133
C	-0.1419907868	-2.0529713925	-1.1826838481	 0.392012
O	-0.2583276534	-2.6467110174	-2.2191310389	-0.317572
N	 0.0041102274	-2.7237028528	 0.0491653748	-0.422294
C	 0.1217280547	-2.0125612757	 1.0992004193	 0.500501
O	 0.2651098541	-2.5210450208	 2.3141219247	-0.373275
O	 0.1228979731	-0.6687321655	 1.1728058072	-0.21041
H	 0.9293308031	 1.7701172555	 0.5920328144	 0.160421
H	-0.1254513843	 1.9340999044	-0.8432300885	 0.170086
H	-0.8220932997	 1.7601879016	 0.7950242763	 0.160414
H	 0.2580064692	-3.4840296832	 2.206749356	 0.328097
