13
gdb 4284	4.0939	1.88444	1.29327	6.6739	65.66	-0.2089	-0.017	0.1919	864.6586	0.097637	-394.812599	-394.805817	-394.804873	-394.843457	25.573	
O	 0.07609551	 1.3538442678	 0.1854108038	-0.424547
C	-0.0033576209	 0.005456617	 0.0677960239	 0.435174
C	-1.1572657048	-0.6784640478	 0.0563593378	-0.238571
C	-1.1456269658	-2.1382378497	-0.0050020514	 0.337587
N	-2.2385269112	-2.8049954356	-0.0229362404	-0.538315
N	 0.1262134843	-2.7749286359	-0.0553849482	-0.304528
C	 1.1808749642	-2.055499891	-0.0402835831	 0.089581
N	 1.2066671215	-0.6761825658	-0.0162692466	-0.386592
H	 0.7420757156	 1.6987003083	-0.4220735187	 0.303277
H	-2.103121462	-0.1561812833	 0.0773871138	 0.125063
H	-2.0095973309	-3.7993541404	-0.0790373733	 0.211147
H	 2.1641896676	-2.52287595	-0.0584816607	 0.130654
H	 2.0559364424	-0.2020953335	 0.2502224133	 0.260072
