17
gdb 7382	3.37697	1.35845	1.02682	4.2292	61.74	-0.2581	0.0228	0.281	1128.6775	0.140996	-438.160511	-438.151487	-438.150543	-438.194463	32.139	
C	 0.742302118	 1.2641659852	-0.0442390755	-0.234329
O	 0.8739634184	-0.1292441068	-0.2308957065	-0.242303
C	-0.114107106	-0.6712557886	-1.0915221402	-0.090646
C	 0.111393	-2.1829482963	-1.2195415828	 0.023092
O	-0.9981710975	-2.7558217566	-1.8512649995	-0.438598
C	 1.3738654326	-2.5401662514	-2.0280574998	 0.372501
N	 2.5306657877	-1.9877424189	-1.6026744768	-0.515859
O	 1.2807331162	-3.3083386591	-2.9742325152	-0.385759
H	 0.8472058184	 1.8123534	-0.9924959338	 0.114243
H	-0.2333710596	 1.5165753103	 0.3957405898	 0.118886
H	 1.5330084914	 1.5791431317	 0.6404494785	 0.13157
H	-1.1194863261	-0.5084142444	-0.677504424	 0.11486
H	-0.0772076563	-0.1940972594	-2.0835912312	 0.101793
H	 0.2414645366	-2.5844152246	-0.2008098071	 0.100071
H	-0.6137107123	-3.278364561	-2.5785645627	 0.295194
H	 2.4943749989	-1.2371610769	-0.927693627	 0.273616
H	 3.3646533095	-2.1443860233	-2.1452069861	 0.261668
