19
gdb 1351	3.95366	2.28628	2.17199	1.4135	66.79	-0.2381	0.0787	0.3168	749.0613	0.171716	-310.94019	-310.932627	-310.931683	-310.971715	28.7	
C	-0.0196389076	 1.5493775489	 0.0226054492	-0.409328
C	-0.0023046941	 0.0184259677	-0.0352175427	 0.410939
C	-1.4212779303	-0.5497428615	 0.0493504607	-0.418926
C	 0.7765245376	-0.5122654535	-1.268467595	-0.26369
C	 2.1693520992	-0.8313885623	-0.7064421908	-0.218297
C	 1.8162819672	-1.2781722742	 0.7127740003	-0.066852
O	 0.7438847699	-0.4405635407	 1.1161879139	-0.298813
H	 0.9904971469	 1.9540937024	-0.0928218425	 0.109897
H	-0.652304514	 1.96650814	-0.7680510071	 0.107016
H	-0.4082097911	 1.8837787028	 0.9888809917	 0.121234
H	-2.0165536706	-0.2501765204	-0.8202159707	 0.108571
H	-1.3949948936	-1.6430858423	 0.0859474981	 0.111804
H	-1.9261091106	-0.1902268695	 0.9510730292	 0.118562
H	 0.3054214496	-1.4254110591	-1.6480680266	 0.09759
H	 0.7945427139	 0.2133770262	-2.085287321	 0.100661
H	 2.7037682515	-1.5941845942	-1.2784877069	 0.097925
H	 2.7931504131	 0.0680992836	-0.674364398	 0.106242
H	 1.5121760128	-2.3385225238	 0.7212191531	 0.083199
H	 2.63294695	-1.1580700503	 1.4318581651	 0.102266
