20
gdb 115297	4.15176	0.95184	0.80969	2.3882	77.15	-0.2379	0.0346	0.2725	1428.9418	0.171199	-440.304036	-440.294704	-440.29376	-440.338291	34.104	
C	-0.0415957494	 1.4689883583	 0.081165184	-0.451964
C	 0.0274415559	-0.0229284346	-0.0654735891	 0.394979
N	-0.002156634	-0.5866964001	-1.2016695784	-0.314086
C	 0.0044752505	-2.0427567251	-1.2740368979	-0.174639
C	-0.3703676986	-2.7325324912	 0.0435065374	-0.021334
C	-0.0695941116	-4.2249103114	 0.022025929	-0.095956
O	-0.5135359432	-4.7844884521	 1.2500173034	-0.424912
C	 0.3763709908	-2.024388042	 1.1690295743	-0.074218
O	 0.1158415156	-0.6165065875	 1.1584545339	-0.260462
H	 0.8622710429	 1.8457813776	 0.5707666703	 0.134344
H	-0.1485159569	 1.928406133	-0.9004992502	 0.141971
H	-0.8902365393	 1.7464233994	 0.7147167437	 0.136668
H	-0.6876104046	-2.3416871427	-2.0704700718	 0.108165
H	 1.0014103114	-2.3723721829	-1.6035682503	 0.102592
H	-1.4459994177	-2.6055980095	 0.2194453434	 0.096606
H	-0.5792438087	-4.6888439353	-0.8374223568	 0.092771
H	 1.0136598028	-4.3807098111	-0.1171780752	 0.087251
H	-0.309358494	-5.7240660333	 1.2481044787	 0.289765
H	 0.0687084676	-2.3845272191	 2.1511055685	 0.132579
H	 1.4597104105	-2.1831378603	 1.0640897331	 0.09988
