21
gdb 107479	2.15171	1.69869	1.25682	2.2025	82.2	-0.2211	0.065	0.2861	1116.5674	0.182862	-383.198827	-383.190097	-383.189152	-383.232014	33.821	
C	 0.1057683237	 1.5951388678	 0.0893528387	-0.383267
C	 0.0029601529	 0.0649962847	 0.0097207865	-0.310512
C	 0.6206830177	-0.5141028529	-1.2367340198	 0.268097
C	 1.6208258207	-1.6064920476	-1.2643472287	-0.291223
N	 2.065612663	-0.2510767764	-1.6464476916	-0.169038
C	 1.5975672107	-0.0583076936	-3.0686802719	-0.233218
C	 0.1409527653	-0.2852669628	-2.661085224	 0.305695
C	-1.0165208041	-0.8844167367	-3.3602129235	-0.315388
N	-0.9516708686	 0.5719618006	-3.0991173404	-0.370321
H	 1.1551932128	 1.9004758872	 0.0615951198	 0.141491
H	-0.4005181657	 2.0854324518	-0.7478714286	 0.122114
H	-0.3401722445	 1.9682457196	 1.0160964764	 0.11219
H	 0.4888982448	-0.3770280162	 0.886489564	 0.109032
H	-1.048890283	-0.2512154626	 0.0597802088	 0.097269
H	 2.0348726602	-1.9361991485	-0.3154545851	 0.116754
H	 1.5658983182	-2.3797186602	-2.0289225779	 0.108508
H	 1.7861653523	 0.9676225741	-3.3921069394	 0.123796
H	 2.0476579367	-0.7595379607	-3.779964407	 0.10355
H	-0.9412554663	-1.161031912	-4.4085546113	 0.120104
H	-1.7083555181	-1.4903657882	-2.7793494058	 0.110951
H	-1.5562269688	 0.8081141826	-2.3155252091	 0.233416
