19
gdb 106761	2.33676	1.47844	1.10507	3.3441	71.68	-0.2467	0.0527	0.2994	1157.5462	0.156822	-460.121539	-460.112098	-460.111154	-460.155728	35.199	
C	-0.1249637152	 1.5399625281	 0.0364395148	-0.498313
C	 0.169257674	 0.0758174095	-0.0000763456	 0.320413
C	 0.7494403853	-0.7569126845	-1.1592575712	-0.320073
C	 1.275136707	-1.7804966969	-0.0914303015	 0.042631
O	 2.6852841218	-1.849757907	 0.0471910989	-0.44647
C	 0.6953634095	-0.8704172299	 1.0038575999	 0.348022
C	 1.2560921073	-0.7532930006	 2.3967377536	-0.200109
O	 1.7170568412	-2.0064311345	 2.8736023506	-0.420701
O	-0.7095130353	-0.8136913998	 0.7271874098	-0.326785
H	 0.7455250553	 2.1187205209	-0.2890255416	 0.126067
H	-0.9593788629	 1.7838384593	-0.6310665702	 0.132201
H	-0.3975822166	 1.8532133027	 1.047671898	 0.134433
H	 0.0281924951	-1.1172999356	-1.8974249705	 0.103135
H	 1.5897354706	-0.2636957768	-1.6557584869	 0.10617
H	 0.8211833268	-2.7775120801	-0.1257254667	 0.086345
H	 3.0393587136	-2.3938942289	-0.6631229758	 0.293571
H	 2.062690477	-0.0043154642	 2.4050843215	 0.09976
H	 0.4742858535	-0.4120121716	 3.0809286008	 0.126494
H	 2.4128246021	-2.2826726502	 2.2638112223	 0.293208
