18
gdb 14938	4.35538	1.37917	1.12095	2.7118	73.88	-0.2441	-0.02	0.2241	1055.7953	0.154783	-347.833813	-347.826195	-347.825251	-347.866302	28.322	
O	-0.1519425285	-0.004855899	-0.0265994122	-0.249641
C	-0.0290439252	 1.1919938557	 0.0089657001	 0.150221
C	 1.2836885705	 1.9417567095	 0.0015071808	-0.061368
C	 1.3807265919	 2.8234771824	-1.2617606076	-0.216892
C	 2.7278502238	 3.5570055817	-1.3181749138	-0.260864
C	 3.1005347328	 4.163354056	 0.0088802689	-0.038106
C	 2.5010850476	 3.8434429038	 1.1542322601	-0.058852
C	 1.4070987276	 2.8138109754	 1.2686472454	-0.264436
H	-0.926001505	 1.8584894434	 0.045219771	 0.065989
H	 2.0859319834	 1.1961364828	-0.0130162829	 0.094854
H	 1.2426651971	 2.213561217	-2.1607146315	 0.108318
H	 0.5659374276	 3.5591120819	-1.2461142215	 0.104694
H	 3.5194461811	 2.8663864355	-1.6441764216	 0.114413
H	 2.6896304285	 4.3392041038	-2.0865978241	 0.107779
H	 3.901027611	 4.8990758296	 0.0070482066	 0.087596
H	 2.8017584719	 4.3316129875	 2.0781610044	 0.088712
H	 0.4476866806	 3.3153703933	 1.4732237695	 0.109236
H	 1.5900523133	 2.1713980994	 2.1388286485	 0.118347
