20
gdb 94090	3.59649	1.00864	0.86743	4.4985	77.45	-0.2417	0.0293	0.271	1342.7638	0.172818	-440.327466	-440.31887	-440.317926	-440.360881	32.784	
O	-0.1473218064	 1.4552408447	 0.1079345344	-0.436882
C	 0.0030703335	 0.0469228337	 0.0253922163	 0.136596
C	 0.7634335794	-0.5275799127	 1.2295864836	-0.223395
C	 0.7902262848	-2.0617897595	 1.1759788317	-0.187375
N	-0.552137976	-2.5961851674	 1.0344650809	-0.03156
C	-1.3410971388	-2.0880715139	-0.0818310264	-0.19223
C	-1.3990204439	-0.5561050273	-0.0534921723	-0.194724
C	-1.0792871116	-3.4940711425	 1.9130421895	 0.148412
O	-2.1947537518	-3.9679821577	 1.8561899565	-0.342338
H	 0.7294177353	 1.8503471592	 0.1530444376	 0.280483
H	 0.5515820754	-0.2249462873	-0.8947271937	 0.061853
H	 1.7911743683	-0.1435445925	 1.2507698977	 0.088954
H	 0.2648583451	-0.1951173982	 2.1474397291	 0.11482
H	 1.4103760516	-2.3900489323	 0.3276038515	 0.107035
H	 1.2387064369	-2.4775836399	 2.0831061734	 0.118215
H	-0.8913700799	-2.429992326	-1.0258213733	 0.104637
H	-2.3334038586	-2.5331942309	-0.0008737526	 0.150689
H	-1.9721453763	-0.2219378957	 0.8189021806	 0.117991
H	-1.9113794629	-0.183086549	-0.9456172795	 0.109463
H	-0.3560792641	-3.7532834047	 2.7124154648	 0.069356
