19
gdb 89766	2.29972	1.51833	1.05571	2.1227	81.75	-0.2513	0.0451	0.2964	1184.3602	0.156981	-385.825697	-385.816654	-385.81571	-385.859505	34.308	
C	-0.7529171759	 1.1848716977	-0.0427275628	-0.412739
C	 0.1782786246	-0.0141371901	-0.0257561636	 0.034919
C	 1.5769515174	 0.1155664152	-0.7010963426	-0.33302
C	 2.1606426441	-0.6622031797	 0.4726438049	 0.481824
C	 3.012937006	-1.8512727664	 0.4676611462	-0.268821
O	 3.483350668	-0.5785321017	 0.9408222646	-0.262987
C	 0.8906196368	-0.4254969826	 1.3289159346	-0.339784
C	 1.0261553738	 0.629489535	 2.313934962	 0.372363
C	 1.140885739	 1.5083056024	 3.1268453595	-0.476883
H	-0.2672029676	 2.066895112	 0.3840109313	 0.131693
H	-1.0536970766	 1.4212426369	-1.0691830637	 0.114126
H	-1.6615531035	 0.9916558484	 0.5371276565	 0.119211
H	-0.3381742673	-0.8983333789	-0.4115432575	 0.081121
H	 1.7027991076	-0.2996818899	-1.7036249348	 0.10497
H	 1.9304678714	 1.1517689636	-0.6956664573	 0.121455
H	 2.8868625169	-2.6144411884	 1.2349326956	 0.117587
H	 3.4586433631	-2.1955571764	-0.4649600438	 0.116641
H	 0.4826701061	-1.3250583661	 1.800697341	 0.10164
H	 1.251705626	 2.2767205692	 3.8511160697	 0.196686
