19
gdb 8368	5.41109	1.0928	1.06809	1.8599	71.71	-0.227	0.0752	0.3022	1157.4711	0.166215	-364.97479	-364.9669	-364.965956	-365.007652	29.473	
O	-0.1017035836	 1.4593707741	 0.0089011982	-0.41763
C	 0.0244004232	 0.0463578572	-0.0176934703	-0.07133
C	-1.3797673657	-0.5464642076	 0.0245965121	-0.32816
C	-1.3900058203	-2.0569256351	 0.0006883407	 0.315694
C	-0.7692676033	-3.072339887	 0.9976153519	-0.202325
N	-1.4268942426	-4.0086989286	-0.0292450876	-0.144513
C	-2.6019250408	-3.0173038926	 0.0334630783	-0.213758
C	-0.8517865093	-3.0389723325	-1.0745167153	-0.202265
H	 0.7803796378	 1.8415432656	-0.015436945	 0.285747
H	 0.5435684949	-0.2910496656	-0.9295082213	 0.088284
H	 0.6085548138	-0.3186409117	 0.8426985727	 0.088317
H	-1.8846548386	-0.1864545204	 0.9295428544	 0.108858
H	-1.9494591501	-0.1582621063	-0.8287548479	 0.108895
H	 0.320082603	-3.1668763903	 1.0350981242	 0.096328
H	-1.2072878745	-3.1455022621	 1.9976735294	 0.098063
H	-3.1810291773	-3.0849525434	 0.9593435406	 0.097693
H	-3.2528084653	-3.0559804817	-0.8452027885	 0.097706
H	-1.3680625754	-3.0804600025	-2.0383954282	 0.098069
H	 0.2309987643	-3.1308724295	-1.2015509484	 0.096329
