19
gdb 30340	2.95053	1.68194	1.12116	2.8111	82.23	-0.1756	0.0555	0.2311	1088.5027	0.162742	-382.106524	-382.098848	-382.097904	-382.138587	30.392	
C	-0.2557947452	 1.5088019852	 0.0292867807	-0.403685
C	 0.0796412498	 0.0223216809	 0.0052162496	 0.018719
C	 1.0410366347	-0.390234594	-1.1511967319	-0.183536
N	 1.9400061964	-1.4383274682	-0.619992293	-0.41222
C	 1.8536289524	-1.3074117456	 0.7847424639	 0.356243
C	 2.4425175952	-1.8090244289	 1.9194107995	-0.31054
C	 1.7512186127	-1.202137875	 3.0171680629	-0.132788
C	 0.7856937687	-0.3575852171	 2.5159248696	-0.154486
N	 0.8714805105	-0.4230007113	 1.1428222427	 0.007071
H	 0.6572512675	 2.1089491733	 0.0886405061	 0.130986
H	-0.7992445234	 1.7887729343	-0.8788578175	 0.122177
H	-0.8889550743	 1.7588127413	 0.8857646643	 0.127016
H	-0.8539287672	-0.5590679573	-0.0406851741	 0.085032
H	 0.5076267668	-0.7390819022	-2.0376928241	 0.110664
H	 1.6416486596	 0.4819008917	-1.4379505891	 0.116822
H	 1.6635882256	-2.3635152835	-0.9306764374	 0.235925
H	 3.2608614957	-2.5090901662	 1.9696113052	 0.08895
H	 1.9679072954	-1.3520715156	 4.0644135968	 0.088513
H	 0.0930349491	 0.3032602983	 3.0105785758	 0.109136
