19
gdb 91436	2.46744	1.6239	1.16988	2.2133	75.04	-0.2437	-0.027	0.2167	1083.2392	0.158131	-422.999624	-422.991161	-422.990217	-423.033153	31.585	
C	 0.1216954688	 1.3709970017	-0.5450473665	-0.394796
C	-0.0215134057	 0.0477651232	 0.176080315	 0.14732
O	 0.2705300285	-1.0929930759	-0.6854696053	-0.308624
C	 1.1797702279	-1.6438630604	 0.2735049249	 0.131381
C	 2.6552284934	-1.2151805772	 0.0289833346	-0.286572
C	 2.482798402	-0.1403484888	 1.1550611281	-0.081147
C	 3.0116552383	 1.2563876798	 0.9820823454	 0.134524
O	 2.4421223385	 2.2608754779	 1.3277678986	-0.248693
C	 0.9703513774	-0.462117923	 1.2605195968	-0.12997
H	 1.1072505365	 1.4797905819	-1.0033926641	 0.115494
H	-0.6272524728	 1.4286126742	-1.3416941387	 0.119644
H	-0.0293940228	 2.2059371861	 0.1438674813	 0.137832
H	-1.0484457749	-0.0455407367	 0.5568763348	 0.082372
H	 0.9841862677	-2.6952510243	 0.4988688686	 0.07981
H	 3.4178185845	-1.9720283918	 0.2246295142	 0.107014
H	 2.7933946703	-0.8157026264	-0.9783487622	 0.119651
H	 2.980009917	-0.5112006205	 2.0633001241	 0.11562
H	 4.0290730702	 1.3033487975	 0.5251663984	 0.076595
H	 0.5559913451	-0.5595358573	 2.2624081218	 0.082544
