23
gdb 115972	3.24201	1.02926	0.81972	1.2029	89.	-0.2325	0.0296	0.2622	1489.1751	0.205532	-388.315352	-388.305714	-388.30477	-388.349674	36.445	
C	-0.0395972996	 1.5518132014	 0.0383396586	-0.387254
C	-0.0247573185	 0.0228528387	-0.0290545577	-0.185479
C	 0.7096419321	-0.5202844537	-1.2510879195	 0.135216
C	 0.8225754775	-2.0492485912	-1.2598536885	-0.303297
C	 1.2754365972	-2.564433125	-2.6074667382	 0.305806
C	 1.7723176454	-3.9815667561	-2.6660839474	-0.476267
C	 1.2203967075	-1.7653356276	-3.6732187467	-0.159621
C	 0.6793692289	-0.3639830917	-3.610857671	-0.120949
O	 0.000804989	-0.0800628484	-2.4043074626	-0.261198
H	 0.9771494697	 1.9540311267	 0.1129763609	 0.108118
H	-0.5001700406	 1.96905469	-0.860411822	 0.134115
H	-0.6013294965	 1.903647538	 0.9089133663	 0.107599
H	 0.4483814506	-0.3930000251	 0.8691491724	 0.091963
H	-1.0521600192	-0.3613978807	-0.052195063	 0.102797
H	 1.7306965576	-0.0970610285	-1.2763657039	 0.058628
H	 1.5301253023	-2.3674404901	-0.4819558362	 0.096833
H	-0.1457191643	-2.4964145894	-0.99107128	 0.106872
H	 1.0035614575	-4.6834177305	-2.3167827471	 0.12303
H	 2.0573301446	-4.2695590149	-3.6816896138	 0.119035
H	 2.6419317041	-4.1248935151	-2.0115207239	 0.120674
H	 1.5686227643	-2.107462416	-4.6453129556	 0.079425
H	 1.4970340439	 0.3640073096	-3.7738624798	 0.091518
H	-0.0491437833	-0.1993721306	-4.4144677613	 0.112434
