20
gdb 9408	4.80324	0.78728	0.71248	3.1537	73.53	-0.2476	-0.0203	0.2272	1591.729	0.173709	-386.14108	-386.130818	-386.129874	-386.177792	34.344	
C	 0.0756251768	 1.3765174659	 0.0785569708	-0.22944
O	 0.0281949618	-0.0298475046	 0.069084299	-0.229543
C	-1.2856683667	-0.5352170264	-0.0132792228	-0.057858
C	-1.2013494665	-2.0579162045	-0.0189457893	-0.212303
C	-2.5746004428	-2.761497743	-0.0127965311	-0.065385
C	-3.3876697019	-2.5189742979	-1.2981811518	-0.409886
C	-2.3485573086	-4.2533005076	 0.1469877907	 0.160867
O	-2.730478594	-4.921026335	 1.072104024	-0.247771
H	 1.1267051322	 1.6681759255	 0.1418459156	 0.128971
H	-0.358242527	 1.8074800291	-0.8380258167	 0.103064
H	-0.4628404265	 1.798610005	 0.9421123805	 0.104623
H	-1.8873308306	-0.1896295995	 0.8459505775	 0.088078
H	-1.7798660958	-0.1592398291	-0.9243751475	 0.087375
H	-0.6199344799	-2.375625785	-0.8934785766	 0.109599
H	-0.6302675604	-2.3611591561	 0.8660353571	 0.121437
H	-3.1517532855	-2.4368037333	 0.8602766976	 0.09515
H	-3.6067447	-1.4573352202	-1.4364177414	 0.130151
H	-2.8382987959	-2.8646920598	-2.1813450109	 0.123364
H	-4.3422419782	-3.0528584293	-1.2638316116	 0.130853
H	-1.7757598006	-4.7138555243	-0.6947245632	 0.068654
