11
gdb 507	12.89478	1.51089	1.37546	4.0685	54.4	-0.2693	0.0206	0.2899	822.8323	0.083392	-248.143861	-248.136834	-248.13589	-248.176127	22.357	
C	 0.007241202	 1.4869022859	 0.0283454013	-0.49697
C	 0.0015486315	 0.0332486161	-0.0349547051	 0.088975
C	-0.0067162342	-1.1676101761	-0.086127512	 0.072152
C	-0.012314186	-2.6268812078	-0.1497080215	-0.469002
C	-1.3044232999	-3.2159243225	 0.2289846146	 0.278558
N	-2.3143229967	-3.6912335669	 0.5242981404	-0.301939
H	 0.7604839373	 1.8499229383	 0.7355596612	 0.154499
H	 0.2276522988	 1.9254415837	-0.9506399374	 0.154503
H	-0.9668298805	 1.867590031	 0.3531986305	 0.15976
H	 0.234070044	-2.9714945379	-1.162491678	 0.179732
H	 0.7583881616	-3.0463772134	 0.5100155193	 0.179732
