21
gdb 121994	5.54855	0.52089	0.49636	3.0665	77.54	-0.245	-0.0222	0.2228	2187.5391	0.178506	-461.355956	-461.344767	-461.343823	-461.393949	37.929	
C	 0.0735570092	 1.3753096711	 0.0804940254	-0.228692
O	 0.0373970759	-0.0293106316	 0.0028051035	-0.232462
C	-1.2741689572	-0.5466422375	 0.0450611833	-0.054168
C	-1.1888354146	-2.0653270893	-0.0487385166	-0.220896
C	-2.561897716	-2.7418911091	-0.0490719426	 0.101871
O	-3.3846915585	-2.2824143472	-1.1207192245	-0.427643
C	-2.4435573124	-4.277540064	-0.066816983	-0.295636
C	-3.786618162	-4.9688222476	 0.0505810696	 0.154294
O	-3.9988302038	-5.9200912847	 0.7589884388	-0.242275
H	 1.121943659	 1.6795968122	 0.0320767629	 0.127284
H	-0.4725988397	 1.8457086559	-0.7526965794	 0.103799
H	-0.3602704383	 1.7444247952	 1.0235833424	 0.10448
H	-1.7766977244	-0.2508514187	 0.9830660552	 0.085836
H	-1.8807249991	-0.1465251873	-0.7823363719	 0.096414
H	-0.6458762198	-2.3363486341	-0.9650788536	 0.098696
H	-0.5922862339	-2.4427891357	 0.7893149277	 0.114653
H	-3.1078728484	-2.4405159323	 0.8544394866	 0.102618
H	-2.9132801649	-2.4493885031	-1.9454447407	 0.280735
H	-1.993394992	-4.5780008421	-1.0260172648	 0.112796
H	-1.790916414	-4.6433845336	 0.7312507865	 0.124798
H	-4.5870881351	-4.5256338266	-0.5793023547	 0.093497
