20
gdb 40071	4.38467	1.17164	1.04066	1.7411	88.14	-0.2135	0.0112	0.2247	1201.9116	0.173147	-365.970882	-365.963359	-365.962415	-366.002759	30.664	
C	 0.0138898959	 1.5196108465	-0.0349872004	-0.296692
N	 1.2646780863	 0.7399099367	-0.0505812588	-0.352535
C	-0.0410871541	 0.0386363375	 0.0128933572	 0.345433
C	-0.3754925718	-0.7638183851	 1.2944343456	-0.319795
C	-0.517443349	-2.2052642279	 0.7709213849	-0.04285
C	-1.8290928542	-3.0715837288	 0.7388363769	-0.23907
C	-1.635910636	-3.243391689	-0.8163955204	-0.317459
C	-0.7379691145	-2.0339583376	-0.7098868222	 0.299597
C	-0.555691552	-0.7854141645	-1.1335906859	-0.337843
H	-0.1523177518	 2.0935998036	 0.874025884	 0.112366
H	-0.3088287503	 2.0202895215	-0.9453593545	 0.105889
H	 1.6289601055	 0.691742668	-0.9998325996	 0.22524
H	 0.3952083589	-0.6311829746	 2.0569259341	 0.110574
H	-1.3278242895	-0.4085599034	 1.7059777226	 0.100218
H	 0.3435681233	-2.8369732549	 1.0182052312	 0.081045
H	-1.8424400073	-3.9844421723	 1.3389679694	 0.100717
H	-2.7149058891	-2.4717736528	 0.9629230834	 0.108731
H	-1.0951774374	-4.1676196822	-1.0466685894	 0.113586
H	-2.5135410428	-3.1761763733	-1.4632799192	 0.110713
H	-0.8075473201	-0.3617208475	-2.099593689	 0.092137
