21
gdb 97582	2.84059	0.73082	0.63319	3.0994	84.64	-0.2488	0.0289	0.2777	1840.187	0.17947	-424.204648	-424.193451	-424.192507	-424.242631	39.673	
C	-0.0774398287	 1.5566529012	-0.3321885931	-0.36563
C	 0.900406482	 0.3927951787	-0.0887124354	-0.318564
C	 1.0746796271	-0.4687403736	-1.253379003	 0.104463
C	 1.2239036215	-1.1740629291	-2.2198399475	 0.012958
C	 1.3423435843	-2.0214831472	-3.4012451833	-0.065247
O	 0.5145101911	-3.1928131556	-3.3057165844	-0.437292
C	 1.0013821657	-1.2739867129	-4.7145867452	 0.141263
C	 1.9965342074	-0.1729284606	-5.04631016	-0.391876
O	 1.0011714228	-2.2085352823	-5.774518555	-0.440015
H	 0.2720294554	 2.193769216	-1.1490400836	 0.130271
H	-1.069986849	 1.1824366724	-0.5973321139	 0.127335
H	-0.1699740131	 2.1702601503	 0.5686279918	 0.118217
H	 1.8783157976	 0.7899099852	 0.2121187761	 0.135503
H	 0.5503134495	-0.212383296	 0.7573439616	 0.13401
H	 2.3636032663	-2.4105572466	-3.4962515432	 0.117426
H	-0.3255260767	-2.9159082634	-2.9220515277	 0.286252
H	-0.0038119171	-0.8331858683	-4.585080179	 0.056114
H	 3.0058688522	-0.5871144056	-5.1375083507	 0.121099
H	 1.7327067655	 0.2884171812	-6.0015242053	 0.126925
H	 1.9976275993	 0.597598933	-4.2713685257	 0.122064
H	 0.5730771469	-2.9998346968	-5.4200578836	 0.284723
