18
gdb 7855	4.55101	1.13969	1.00838	3.7315	69.27	-0.2302	0.0417	0.2719	1183.6485	0.153142	-381.12773	-381.118877	-381.117933	-381.161754	32.003	
C	 0.0989813428	 1.2400740894	-0.5605087967	-0.414005
C	-0.2526162969	 0.0480907191	 0.3015655296	 0.034642
C	 0.658179975	-1.1258452992	 0.4172327635	-0.255763
N	 0.4342148567	-0.2454855013	 1.5638223243	-0.10032
C	 1.5378198416	 0.5971453868	 2.0082678517	-0.251192
C	 2.2127690717	 0.0618895883	 3.2800025679	 0.380306
N	 1.4691480715	-0.8418101734	 3.9643459919	-0.506345
O	 3.3066271995	 0.4628563029	 3.6280963489	-0.368395
H	 1.1781111591	 1.3706583427	-0.6706412837	 0.126551
H	-0.3246735605	 1.1103990551	-1.5617393499	 0.126754
H	-0.3156308024	 2.1648394382	-0.1444981479	 0.127285
H	-1.3227958013	-0.1461975699	 0.3626749912	 0.093528
H	 0.2662788004	-2.1358248631	 0.5029476482	 0.116006
H	 1.6215183047	-1.0552470166	-0.0865873249	 0.116463
H	 2.3360482286	 0.7370598276	 1.2677888153	 0.119229
H	 1.1483417087	 1.5923331299	 2.2553950018	 0.13324
H	 0.5761349146	-1.1216714891	 3.5918790475	 0.265104
H	 1.8273942761	-1.2261697576	 4.8216976712	 0.25691
