23
gdb 60211	3.61275	0.96637	0.85222	1.0137	86.51	-0.2404	0.082	0.3224	1466.7725	0.204573	-388.262035	-388.252472	-388.251527	-388.296987	36.329	
C	-0.0266494932	 1.5486021562	 0.0556691814	-0.388436
C	-0.0036091845	 0.0254659582	-0.0157902644	 0.150336
C	 0.6039651398	-0.5999835127	 1.2438934841	-0.387942
O	-1.3497011283	-0.3857245419	-0.2321458828	-0.269305
C	-1.5353204703	-1.7065474808	-0.673759928	 0.144563
C	-1.7943057766	-2.8532035587	 0.3759693125	-0.265584
C	-3.1357121587	-3.1273638605	-0.310045139	-0.050211
C	-3.9846926308	-1.8922528919	-0.2500801708	-0.268372
C	-2.9017811995	-1.9715797483	-1.2918504484	-0.075293
H	 0.9858343528	 1.9466724211	 0.1719905607	 0.109437
H	-0.4661172366	 1.9661865549	-0.8538329052	 0.120319
H	-0.6281585484	 1.8790189159	 0.9086070687	 0.121237
H	 0.6005333758	-0.282867526	-0.8868781049	 0.062036
H	 0.6467434163	-1.6902183384	 1.1726164854	 0.118946
H	 1.6248188385	-0.2342410802	 1.3961677717	 0.110332
H	 0.007975981	-0.3360338889	 2.1236944209	 0.119369
H	-0.723273754	-1.9920168073	-1.3577284626	 0.065244
H	-1.0698429853	-3.6675012055	 0.297016964	 0.096546
H	-1.858134268	-2.5296907088	 1.4191553368	 0.098299
H	-3.5489944559	-4.1063077483	-0.516644029	 0.084454
H	-4.9931147183	-1.9937140756	-0.6380785174	 0.107787
H	-3.8909937926	-1.2009425241	 0.582868931	 0.115989
H	-3.1263354033	-1.9083571583	-2.3498396149	 0.080248
