21
gdb 59181	2.62213	1.29787	1.03543	1.3145	78.9	-0.2304	0.0678	0.2983	1241.0463	0.180277	-424.162653	-424.153216	-424.152272	-424.196764	36.019	
C	 0.0816143909	 1.5470895183	 0.1166639116	-0.401242
C	 0.1147563156	 0.0181070782	 0.098110719	 0.080413
O	 0.793757745	-0.504409486	 1.2440274549	-0.429121
C	-1.2820354926	-0.5833613251	 0.0055690196	-0.005804
C	-2.0858111824	-0.7680396495	-1.3113259016	 0.01799
C	-1.1553182174	-1.9196542084	-1.7477624814	-0.275096
C	-1.5182178299	-2.1042026435	-0.2471781917	 0.399952
C	-1.2691020351	-3.2580354696	 0.6705953614	-0.518525
O	-2.927488897	-1.7603807555	-0.6084812976	-0.34616
H	 1.0933295307	 1.9468307112	 0.2261573285	 0.125006
H	-0.3531187585	 1.9441752142	-0.8067164431	 0.119323
H	-0.5254457006	 1.9129348369	 0.9540196622	 0.108911
H	 0.7322141981	-0.3086767247	-0.7441795939	 0.088603
H	 0.3016544728	-0.2264149509	 2.0250247167	 0.277386
H	-1.9232106119	-0.2102419443	 0.8138908633	 0.066821
H	-2.5987618427	-0.0229099119	-1.9198694655	 0.089961
H	-1.6203256202	-2.6467447498	-2.4149595527	 0.105312
H	-0.1213423374	-1.702315481	-2.0225008725	 0.097735
H	-0.2043824898	-3.3051696576	 0.9161679687	 0.142635
H	-1.8313305532	-3.1294173247	 1.6008516561	 0.128208
H	-1.5736979845	-4.2016494762	 0.208208128	 0.127691
