19
gdb 12380	2.93263	2.0219	1.29338	3.2187	71.53	-0.2222	-0.0117	0.2106	968.746	0.167054	-365.089682	-365.08182	-365.080876	-365.121781	29.895	
C	-0.0286757671	 1.5601000917	 0.0017957689	-0.399928
C	 0.0915542462	 0.0375535605	 0.0160036264	-0.081213
C	 0.7529122826	-0.5360463822	-1.2562433947	-0.180126
C	 0.9412071527	-2.0500293496	-1.1590604043	-0.168579
N	 1.7636116141	-2.3522600644	 0.0085932619	-0.294198
C	 1.1143541981	-1.974667204	 1.2633099193	-0.258787
C	 0.8025775763	-0.4779004702	 1.266683403	 0.412042
O	 1.0650008829	 0.2254261504	 2.2136343871	-0.308587
H	 0.9594106169	 2.026719092	-0.0595846777	 0.125184
H	-0.6175099939	 1.8914296535	-0.8591670724	 0.10599
H	-0.5048060763	 1.92429272	 0.9145084337	 0.131052
H	-0.9184293938	-0.40291855	 0.0737552758	 0.093627
H	 0.1399226593	-0.2853638391	-2.1290505737	 0.097199
H	 1.7336334407	-0.0667727472	-1.3977277934	 0.112639
H	-0.0526831311	-2.5396954208	-1.1223741759	 0.074803
H	 1.4538931891	-2.4252719358	-2.0505696962	 0.10218
H	 2.0050793776	-3.3364648631	 0.0306875967	 0.224053
H	 0.1547489719	-2.5061111764	 1.4362637604	 0.089787
H	 1.7731602539	-2.1868792255	 2.108183185	 0.122862
