20
gdb 15801	6.13835	0.9026	0.85135	2.4737	76.93	-0.2407	-0.0066	0.2341	1426.8312	0.175723	-349.024292	-349.01512	-349.014176	-349.058984	32.725	
C	-0.0262875288	 1.5748069413	-0.033259296	-0.38663
C	 0.0070586434	 0.0453561062	 0.012773949	-0.160769
C	 0.6933263337	-0.5678649281	-1.2066027077	-0.292563
C	 0.7442435604	-2.0882425145	-1.1946548948	 0.377613
O	 0.2744138619	-2.7442736144	-0.2865850942	-0.334786
C	 1.4066245221	-2.735905666	-2.3659595108	-0.101635
C	 2.1653354064	-4.0308518927	-2.1114062626	-0.24704
C	 0.8583063716	-4.0803751201	-2.8231741925	-0.247044
H	 0.9848147331	 1.9961034246	-0.0719153607	 0.11157
H	-0.5668696482	 1.9368794662	-0.9152949666	 0.111574
H	-0.522674092	 1.985788633	 0.851156454	 0.114822
H	 0.5209226604	-0.2949847321	 0.9181112931	 0.111908
H	-1.0103492912	-0.3534743927	 0.0856828759	 0.111957
H	 0.1958779134	-0.2576964673	-2.1378967737	 0.118685
H	 1.7255553627	-0.1997553533	-1.3062313548	 0.118653
H	 1.7966908344	-2.0707879645	-3.1284672347	 0.08473
H	 3.0782685308	-4.1879564457	-2.6741351141	 0.116605
H	 2.1840063089	-4.364031374	-1.0801194848	 0.137871
H	 0.0023211093	-4.4466635818	-2.2681662054	 0.137875
H	 0.8458750274	-4.272585834	-3.8898000684	 0.116604
