17
gdb 55411	2.39327	1.59682	1.12966	1.4873	69.35	-0.2407	-0.0468	0.1939	1098.8328	0.134203	-459.003501	-458.994827	-458.993883	-459.037305	31.377	
C	 0.1257559089	 1.3704282278	-0.0214171401	-0.493013
C	-0.0310026513	-0.1271757451	-0.142586764	 0.362792
O	 0.8861743044	-0.9003573258	-0.265655538	-0.287104
C	-1.4854988371	-0.6461725958	-0.0642915156	-0.101902
O	-1.6292571747	-1.9579019409	-0.5391117969	-0.243409
C	-1.4783647953	-2.8657766453	 0.563036835	-0.094073
C	-2.1238233067	-2.156540497	 1.7563735744	-0.333533
C	-1.9264877279	-0.6808637109	 1.4174185411	 0.36857
O	-2.0624359556	 0.2703255138	 2.1390801526	-0.300198
H	 1.1793630279	 1.6300701035	 0.0867575368	 0.145154
H	-0.278752963	 1.8552565108	-0.9179662498	 0.144878
H	-0.4553720371	 1.7368450699	 0.8318227699	 0.169868
H	-2.1425644147	 0.0256961179	-0.6285224193	 0.123491
H	-1.97304239	-3.7974136596	 0.283048762	 0.120267
H	-0.415076925	-3.063220643	 0.7411682859	 0.129448
H	-3.2019351973	-2.3483588768	 1.8063434535	 0.145885
H	-1.6917409855	-2.3931608732	 2.7305914424	 0.142877
