20
gdb 109447	2.40791	1.36394	0.96929	3.5257	80.6	-0.2389	0.0353	0.2742	1268.8516	0.170053	-403.160648	-403.151393	-403.150449	-403.194811	34.619	
C	 0.1180268145	 1.5727710189	 0.0918155293	-0.387842
C	-0.1274807706	 0.0678843396	-0.0678031643	-0.191678
C	 0.6252291109	-0.5124312357	-1.2622650216	-0.263752
C	 2.1670132394	-0.6316977182	-1.0958994026	 0.457352
O	 3.0742273959	 0.1213383852	-0.8546590394	-0.374702
N	 2.1112049946	-1.9897846283	-1.3048643254	-0.398431
C	 0.6672007979	-2.0463145922	-1.4404238835	 0.416849
C	-0.2309868812	-3.0939665059	-0.8656734714	-0.326934
C	-0.0966381864	-2.925453603	-2.375137824	-0.330394
H	 1.1870245638	 1.7794245211	 0.1901935725	 0.152746
H	-0.2504734612	 2.1259688007	-0.7791846003	 0.11245
H	-0.3950320308	 1.961922136	 0.9762885833	 0.109698
H	 0.1818932515	-0.4597375403	 0.8426116011	 0.104629
H	-1.2011439458	-0.1270751574	-0.1884959645	 0.095229
H	 0.3595451941	 0.0128006623	-2.185834518	 0.099511
H	 2.8198135247	-2.7072199102	-1.2560131934	 0.247746
H	 0.2251759052	-3.9692221266	-0.4141339722	 0.116442
H	-1.1551516808	-2.780101599	-0.3911659775	 0.122898
H	-0.9305005342	-2.4973338494	-2.9222093058	 0.121468
H	 0.4471730586	-3.6902329375	-2.9204484422	 0.116715
