16
gdb 4803	6.17214	1.19493	1.04554	1.8898	69.16	-0.1758	0.0374	0.2133	1098.866	0.132119	-379.944455	-379.936353	-379.935409	-379.977075	30.045	
N	-0.3236845217	 1.4132611089	 0.4727788516	-0.604913
C	-0.023257642	 0.0676013848	 0.1783422197	 0.264283
C	-0.8049361479	-0.8290695435	-0.5208869069	-0.169333
N	-0.1725357746	-2.0551797647	-0.4778829249	-0.284767
C	 1.0065079484	-1.9516473113	 0.2077380051	 0.28897
C	 1.8833211056	-3.1435999058	 0.4028419633	-0.178754
O	 2.0564105726	-3.89802883	-0.7982507689	-0.419569
C	 1.1257115839	-0.6434975524	 0.6328200235	-0.316419
H	 0.5063007834	 1.9930693215	 0.4826141276	 0.237722
H	-0.9843316891	 1.8116945974	-0.1827119252	 0.235249
H	-1.7420696125	-0.6964209707	-1.0369207849	 0.102289
H	-0.4589323858	-2.884771384	-0.9676426455	 0.261121
H	 2.8436906889	-2.8182173108	 0.827653645	 0.101793
H	 1.443484766	-3.8567964224	 1.1111130232	 0.118617
H	 2.4134394854	-3.2946520853	-1.4593804141	 0.280815
H	 1.9357313594	-0.2427743819	 1.2247376113	 0.082897
