14
gdb 17423	3.20776	2.6593	1.8436	2.7413	60.93	-0.2434	0.0041	0.2474	722.1482	0.107359	-382.507699	-382.501423	-382.500478	-382.537782	25.01	
O	 0.0774127345	 1.4461331634	-0.0822769902	-0.467649
C	-0.0389289778	 0.0862547156	-0.0803718415	 0.298123
C	 0.4383115812	-0.7715168853	-1.2686869833	-0.287949
C	-0.5393780769	-1.8394673347	-0.7568263137	-0.066438
C	-0.474841865	-1.8628663293	 0.7748019232	-0.192722
C	-1.3622673099	-0.8534039426	-0.0060272988	-0.160066
C	 0.3502462869	-0.6926168452	 1.1787777482	 0.36863
O	 0.834857159	-0.2886319418	 2.2050695149	-0.366146
H	 0.3024065938	 1.7102656085	 0.8222443487	 0.299335
H	 0.0942863743	-0.3571128712	-2.2198730228	 0.119666
H	 1.5078093162	-1.0036951526	-1.3193954816	 0.10626
H	-0.8833940433	-2.7215470653	-1.2800622532	 0.107774
H	-0.8067180648	-2.703160376	 1.3672459178	 0.118693
H	-2.4154240382	-0.6630656435	 0.1297503923	 0.12249
