17
gdb 71748	2.85216	2.25138	1.68104	2.7878	68.87	-0.2344	0.0682	0.3026	831.7026	0.138344	-421.79053	-421.784327	-421.783383	-421.820615	26.823	
O	-0.0756340081	 1.3653509804	 0.0993982253	-0.494561
C	 0.0359641994	-0.0202028247	 0.0769393303	 0.421005
C	 0.9132309592	-0.7227817675	 1.1030836889	-0.316714
C	 0.5887495811	-2.1466554372	 0.6958735926	-0.070689
C	 0.323270045	-2.1843959906	-0.7976040114	-0.081977
C	-0.838302264	-2.1943027707	 0.1858999617	-0.081814
C	-1.3348984871	-0.7552383814	-0.0546998187	 0.023714
O	-1.2821107597	-0.5821858845	-1.4995718699	-0.296596
C	 0.1523273525	-0.7455057781	-1.3173909647	-0.017965
H	 0.7887461997	 1.7449324573	-0.0906037936	 0.28184
H	 1.9758421134	-0.4761848095	 0.9848679786	 0.092108
H	 0.6098889052	-0.4849114191	 2.1281589404	 0.109031
H	 1.0258469414	-3.0002878729	 1.2000237177	 0.088042
H	 0.578618791	-3.0232228965	-1.4301859816	 0.09336
H	-1.4993666981	-3.0383208956	 0.3238064403	 0.093783
H	-2.2562489986	-0.4014954469	 0.4050435094	 0.083749
H	 0.7517513778	-0.3869521326	-2.1540772254	 0.073684
