15
gdb 85491	3.02396	1.33259	1.06798	3.3941	67.63	-0.2805	-0.0101	0.2705	1099.0613	0.113011	-453.96791	-453.959887	-453.958943	-454.000849	29.59	
O	-0.8494267174	 1.2599399681	-0.574498788	-0.418033
C	-0.1348603927	 0.1279984083	-0.1437177375	 0.078582
C	-1.1563026988	-0.9392113828	 0.2410712288	-0.315129
C	-1.4390143587	-1.6499264233	-1.0633251849	 0.432935
N	-2.4427634607	-2.3560231536	-1.3323561009	-0.529607
O	-0.3927074589	-1.4228871838	-1.9378538439	-0.245752
C	 0.5924720048	-0.5956804647	-1.3198801734	-0.032694
C	 1.1441016474	 0.3486299521	-2.2923220446	 0.269736
N	 1.5951532323	 1.1438613114	-2.9982994491	-0.310932
H	-0.2325860028	 1.9111167283	-0.9299734669	 0.304402
H	 0.5766696291	 0.3668069343	 0.6563900934	 0.095062
H	-0.7307739751	-1.6483429907	 0.9588987149	 0.138636
H	-2.0592013302	-0.5073940635	 0.6705262759	 0.163339
H	-2.3840306966	-2.7375840065	-2.2777440764	 0.233565
H	 1.4091192984	-1.2216893335	-0.9352073174	 0.135889
