20
gdb 77250	2.18147	1.34425	1.06184	3.0946	76.32	-0.2391	0.0224	0.2615	1226.2645	0.168614	-440.298433	-440.288235	-440.287291	-440.333357	37.28	
C	-0.2152812066	 1.6978122813	 0.2715354309	-0.427645
C	-0.1286989441	 0.1938249305	 0.131353218	-0.087895
C	 1.067049906	-0.5008070774	-0.5061652943	-0.065966
N	 2.1944456417	 0.2666421208	-0.9419753157	-0.285404
C	 3.4681632369	-0.2104807952	-0.8544516217	 0.153588
O	 3.7874118974	-1.240789265	-0.3010405207	-0.325278
C	 0.7709557901	-0.6684487091	 0.9736088758	 0.39714
C	 1.6848772387	-0.102972668	 2.0344019773	-0.454662
O	 0.1865543537	-1.8971073177	 1.3197147114	-0.463385
H	 0.7594857998	 2.1546145897	 0.4595819237	 0.119622
H	-0.6265371635	 2.1509216159	-0.63775201	 0.117708
H	-0.8746670555	 1.9719696225	 1.1013688155	 0.131184
H	-1.0722142034	-0.2879963797	-0.1082905935	 0.10392
H	 0.8477424889	-1.3784315193	-1.1102880356	 0.104765
H	 2.0381943418	 1.075639456	-1.5246560164	 0.248577
H	 4.1970182648	 0.4667751215	-1.3438143945	 0.074863
H	 2.1159374728	 0.8560646977	 1.7411723364	 0.117784
H	 1.1328936888	 0.0333042874	 2.9695252374	 0.120532
H	 2.5162767659	-0.791842551	 2.2144409647	 0.134421
H	 0.8979049058	-2.5477352709	 1.3659734914	 0.286129
