19
gdb 51570	4.65553	0.71369	0.66864	3.315	78.2	-0.2493	-0.0254	0.224	1679.3714	0.157043	-422.997519	-422.988226	-422.987282	-423.033355	32.982	
O	-0.8552198559	 0.525111334	 0.1246592299	-0.237016
C	-0.1716275866	 1.5157848932	 0.1182216188	 0.159795
C	 1.2691905155	 1.5634622459	-0.3581623031	-0.311085
C	 1.4745018257	 2.6707753812	-1.3710654208	 0.028042
O	 1.4266520764	 4.0171437291	-0.8795065729	-0.265877
C	 2.6619060172	 3.5417675161	-1.4324433428	 0.063142
C	 3.8443322442	 3.4490429178	-0.5321623436	-0.009411
C	 5.198433204	 3.1490189004	-1.1346442712	-0.26837
C	 4.9049630073	 4.5241400131	-0.6008786237	-0.267456
H	-0.5635822896	 2.4935314294	 0.4751952555	 0.097021
H	 1.8983781281	 1.7421733807	 0.5216779607	 0.125927
H	 1.5307395259	 0.589438023	-0.7827012804	 0.126218
H	 0.9203292221	 2.5266980874	-2.3012380154	 0.100823
H	 2.8907980297	 3.9711002078	-2.4116518368	 0.089393
H	 3.6468985562	 3.0387361406	 0.4518995836	 0.090353
H	 5.8690540727	 2.5052554138	-0.5773508512	 0.120244
H	 5.2562146982	 3.022823367	-2.2108390785	 0.117424
H	 4.7611891158	 5.3276994971	-1.3154542097	 0.120534
H	 5.373379653	 4.8323252525	 0.3266831618	 0.120297
