17
gdb 50920	1.83018	1.51101	0.91308	3.0199	75.74	-0.2485	0.0126	0.2612	1262.6321	0.134728	-417.960764	-417.951383	-417.950439	-417.995864	33.39	
O	 0.0274960143	 0.6629152213	 1.2471242907	-0.324994
C	-0.0232147505	 1.4024658719	 0.2859363114	 0.161973
N	 1.0409790144	 1.7480932599	-0.4856674537	-0.277733
C	 2.3750757251	 1.1884020282	-0.2545375794	-0.195253
C	 3.024218516	 0.9022690296	-1.5339768899	 0.297922
C	 3.5646405217	 0.7048770041	-2.5885828073	-0.408064
C	 3.2330984644	 2.0961141436	 0.6228742346	 0.027544
C	 3.0916324414	 2.0068927774	 2.0954728382	-0.24998
N	 4.3155954867	 1.5231551502	 1.428424951	-0.316672
H	-0.960013715	 1.876349074	-0.0646240384	 0.088435
H	 0.8981062154	 2.3305762693	-1.2953006568	 0.258307
H	 2.2072093158	 0.2534534149	 0.29519807	 0.136812
H	 4.0485478292	 0.5104731516	-3.5140488227	 0.205656
H	 3.4798820667	 3.0508667219	 0.163315154	 0.096495
H	 3.2279606972	 2.8954373666	 2.7048055759	 0.120089
H	 2.3772114391	 1.2865548547	 2.4827610218	 0.144507
H	 4.3025070982	 0.5072001309	 1.3656246106	 0.234957
