17
gdb 72051	2.42454	1.71621	1.30704	4.9909	78.6	-0.2493	-0.0014	0.248	1020.7633	0.137051	-380.814778	-380.807141	-380.806196	-380.846784	29.5	
C	-0.1047887666	 1.458794807	 0.0059431177	-0.50525
C	 0.0591948618	-0.0300883541	 0.0065745819	 0.251203
C	 0.9276085298	-0.9077401463	-0.8856978144	-0.222975
N	 0.0848171366	-2.1120805124	-0.5124415133	-0.196904
C	 0.4081341879	-2.2492675102	 0.9644125535	-0.183079
C	-0.2704004054	-0.9135946577	 1.2155994466	-0.176072
C	-1.014314466	-1.1027971945	-0.093975673	 0.276769
C	-2.3764818084	-1.0963792982	-0.4615924414	 0.129097
N	-3.4955066819	-1.0705658413	-0.7614720663	-0.361425
H	 0.7766127672	 1.9474784076	 0.4355736903	 0.133052
H	-0.240099369	 1.838928251	-1.0116713065	 0.137323
H	-0.9757792505	 1.7629202851	 0.5947890615	 0.137508
H	 0.791320426	-0.6842060629	-1.9467889786	 0.123033
H	 1.9940934226	-1.016328274	-0.6603454455	 0.105821
H	-0.1483931265	-3.0918220172	 1.3805293635	 0.127726
H	 1.4752186197	-2.3597023634	 1.1826880227	 0.109017
H	-0.6675562374	-0.4913319185	 2.1301824913	 0.115158
