14
gdb 4559	4.07928	1.79917	1.26059	5.0512	61.11	-0.1862	0.0468	0.2331	912.528	0.107685	-415.90858	-415.900839	-415.899895	-415.940588	27.798	
C	-0.0134961021	 1.4527706699	 0.0527627939	-0.343516
N	-0.0369042448	 0.0097246704	 0.055769204	-0.113086
C	-1.1797447846	-0.8213456129	 0.0471238838	-0.23492
C	-0.7202779961	-2.0830110469	 0.0494734266	 0.359369
N	-1.3072536509	-3.3329229299	 0.1451713003	-0.588982
O	 0.6507922377	-2.0826337084	 0.0448897792	-0.231524
C	 1.0922040087	-0.7583373538	 0.0411359279	 0.479921
O	 2.2533396032	-0.4417909717	 0.0238481564	-0.416623
H	 1.033066762	 1.760726565	 0.0456236639	 0.172222
H	-0.5128254261	 1.8549803729	-0.8360659854	 0.132137
H	-0.5019361907	 1.8583405956	 0.9458748892	 0.133731
H	-2.1799649121	-0.4274659451	 0.0486538344	 0.13217
H	-2.2934653751	-3.321773867	-0.0771611686	 0.256494
H	-0.8233728192	-4.0289465481	-0.4099413457	 0.262605
