21
gdb 103884	3.67531	0.79905	0.74002	1.6725	85.38	-0.2522	0.0553	0.3075	1606.4687	0.179119	-387.044284	-387.033812	-387.032868	-387.079978	38.852	
C	-0.4679867761	 1.5201642947	 0.2749294401	-0.402828
C	 0.1051299411	 0.1381463705	-0.0641170032	-0.220641
C	 0.8509424372	-0.4922635065	 1.0981374871	 0.389969
O	 1.9665707159	 0.2528021772	 1.5280291639	-0.475208
C	 0.1066575754	-1.2775593259	 2.157370607	-0.346083
C	 1.0694999997	-1.9733960133	 1.2144529347	-0.034815
C	 0.5847629667	-2.9788705297	 0.178821624	-0.394252
C	 0.4671035021	-4.3284916499	 0.7247916823	 0.309176
C	 0.3819593691	-5.4334611555	 1.1898020349	-0.443829
H	 0.3283897906	 2.2268928713	 0.5310023507	 0.114435
H	-1.011603667	 1.9395762944	-0.5764622709	 0.117797
H	-1.1606850185	 1.4647871918	 1.1219196898	 0.118087
H	-0.7104191929	-0.5206503754	-0.3799496881	 0.095302
H	 0.7918534272	 0.2259037349	-0.9152710805	 0.105179
H	 1.6413886611	 1.0236934897	 2.0053114133	 0.282422
H	 0.4129147027	-1.1545988531	 3.1901703449	 0.112127
H	-0.9559767063	-1.4500430735	 2.0143276107	 0.109573
H	 2.0287135366	-2.2283082406	 1.6539714503	 0.108388
H	-0.3872417758	-2.672237382	-0.22520209	 0.127242
H	 1.2760429986	-2.9936456576	-0.6744542914	 0.13477
H	 0.3020750125	-6.4115979915	 1.5945895204	 0.193189
