17
gdb 124697	3.97789	0.93885	0.91724	1.5342	69.55	-0.2708	-0.0264	0.2445	1309.7606	0.136753	-451.309921	-451.301068	-451.300124	-451.344596	31.105	
C	 0.0471721716	 1.5381443042	 0.0992023852	-0.399454
C	-0.0106566115	 0.0049402881	-0.0157214542	-0.075187
C	-1.4599225805	-0.5038951325	-0.0313646381	-0.08002
O	-2.0571747967	-0.1324365178	 1.2003669732	-0.421509
C	 0.7114046873	-0.4797573649	-1.2331182537	 0.382666
N	 1.8090831209	-1.2310943565	-1.2086875382	-0.271061
N	 2.0496387662	-1.3769430502	-2.5055080668	-0.071085
N	 1.1818684085	-0.774819483	-3.3034199359	-0.098919
N	 0.3215100577	-0.1968980782	-2.507455322	-0.256297
H	 1.0794145058	 1.8837417319	 0.2051164945	 0.117428
H	-0.3786578596	 2.0059507142	-0.7938017236	 0.13289
H	-0.5246032534	 1.8618794575	 0.9707999813	 0.13802
H	 0.4849548598	-0.4402857189	 0.8530913319	 0.108755
H	-1.9886117445	-0.0646627372	-0.8899773774	 0.11035
H	-1.4624519034	-1.597302437	-0.161660045	 0.091876
H	-2.9926859259	-0.3493946962	 1.1590721121	 0.290298
H	 2.8331514579	-1.9038115434	-2.8614110731	 0.301249
