18
gdb 93187	2.92295	1.40587	0.98138	4.7054	76.71	-0.2295	-0.0299	0.1996	1189.9814	0.149797	-435.292251	-435.283882	-435.282938	-435.325377	31.759	
C	-0.1885306924	 1.4870669888	 0.0273420524	-0.411246
C	 0.0100812396	-0.0241533065	-0.0589168382	 0.026762
C	 0.9483652711	-0.4019669962	-1.1937941556	-0.07029
O	 1.1710749603	-1.8158585021	-1.2437931328	-0.261026
C	 1.414814571	-2.4858397859	-0.0853430511	 0.342629
N	 1.8300999353	-3.6816075866	-0.08353903	-0.509389
C	 1.127667301	-1.805674037	 1.2375104853	 0.300261
N	 1.3482697557	-2.3555982423	 2.3654079298	-0.520718
N	 0.621437015	-0.5256540659	 1.159347235	-0.339001
H	 0.7675762081	 1.9967704754	 0.1806773888	 0.13424
H	-0.6506802993	 1.8688814907	-0.8875693013	 0.128148
H	-0.8478436408	 1.7410311478	 0.8633566137	 0.128446
H	-0.9657756672	-0.5029360689	-0.2493916826	 0.09028
H	 0.5242012075	-0.1395341798	-2.1653742479	 0.123432
H	 1.9087425504	 0.1153104911	-1.070014828	 0.118846
H	 1.9758431273	-4.0117819256	-1.0384484375	 0.229228
H	 1.7555119719	-3.2769274085	 2.2026925714	 0.242649
H	 0.2690491056	-0.1819800684	 2.0421982684	 0.24675
