18
gdb 50522	2.18454	1.68949	1.13463	2.1853	72.36	-0.2369	-0.0293	0.2076	1100.5654	0.146789	-439.045941	-439.037358	-439.036414	-439.080478	30.788	
O	-0.5430028997	 1.914990608	 0.8404200109	-0.254647
C	 0.2430017228	 1.2027948637	 0.2661649261	 0.142525
C	 1.5652875291	 1.6814117216	-0.2846509736	-0.123021
N	 2.2121264984	 0.7405839895	-1.2213634263	-0.337705
C	 2.5303744418	 1.8401978205	-2.1663566392	-0.228665
C	 1.5532226105	 2.7702681137	-1.4144988084	 0.41824
C	 0.2591007264	 3.3361343329	-2.0293092723	-0.352629
C	 0.8005362308	 4.6961208233	-1.5512197272	-0.074758
O	 2.0154397484	 4.0732460786	-1.0660403857	-0.303036
H	 0.0311846082	 0.1284340901	 0.0622630639	 0.084738
H	 2.1895609472	 2.051154866	 0.5416023177	 0.108146
H	 3.0178228732	 0.2474421966	-0.8544959548	 0.226047
H	 3.55197751	 2.2344870542	-2.0931257207	 0.111303
H	 2.3047589352	 1.613196336	-3.2144144663	 0.106183
H	 0.1933417047	 3.216297343	-3.1122450561	 0.113873
H	-0.6709660487	 3.0105922703	-1.5647530309	 0.136523
H	 1.0108458248	 5.44060404	-2.3262523211	 0.107767
H	 0.2374482869	 5.165012052	-0.737497426	 0.119116
