13
gdb 25544	5.6374	0.98683	0.83982	2.0815	63.87	-0.2086	-0.016	0.1926	1244.409	0.089905	-489.957878	-489.950134	-489.949189	-489.990639	27.947	
O	 0.6237486151	 2.4917518266	 1.3842602155	-0.301736
C	 0.2121682012	 1.9813678114	 0.3664101759	 0.143613
N	 0.9749330171	 1.2060158296	-0.464979079	-0.406092
C	 2.3091567433	 0.9164689368	-0.2370037702	 0.445118
C	 3.1844619298	 1.2406500064	 0.7251839472	-0.195959
N	 4.3838889443	 0.6118972462	 0.3498785699	-0.365982
C	 4.233435917	-0.0802909535	-0.8203608043	 0.484709
O	 5.0075479445	-0.7362824885	-1.4579240472	-0.391882
O	 2.8969048358	 0.1222396996	-1.1881651125	-0.250598
H	-0.8232385783	 2.0843864021	-0.0038058818	 0.09988
H	 0.5671342991	 0.8129731729	-1.2999165674	 0.275756
H	 3.063613622	 1.8385412416	 1.606990749	 0.18137
H	 5.2574108491	 0.6406486889	 0.8444828949	 0.281802
