19
gdb 1857	5.1244	1.90931	1.57139	0.1979	73.05	-0.2347	0.028	0.2626	861.4228	0.172241	-273.806874	-273.799453	-273.798509	-273.838115	28.317	
C	-0.0787475298	 1.5945248955	 0.0083624244	-0.395139
C	 0.0188539347	 0.0650973492	 0.0264363299	-0.005854
C	 0.8007673597	-0.5336937584	-1.1731408631	-0.224864
C	 1.5682232447	-1.7669708973	-0.6263653823	-0.005853
C	 2.9447438471	-1.9806344491	-1.2655369743	-0.395139
C	 1.6018821596	-1.48437179	 0.8613966364	-0.073279
C	 0.7725750428	-0.5037525624	 1.2108111992	-0.073285
H	 0.9184541339	 2.0484826445	 0.0151020908	 0.113789
H	-0.6027398295	 1.9459816846	-0.8870575132	 0.111197
H	-0.624330203	 1.9699155027	 0.8810182034	 0.109486
H	-1.007569725	-0.3347175593	 0.0369251196	 0.074987
H	 0.156123304	-0.7760914294	-2.0228680385	 0.090795
H	 1.5303280192	 0.2080112155	-1.5231639923	 0.093884
H	 0.9751343409	-2.6791873559	-0.7984544333	 0.074986
H	 3.586648657	-1.1065521075	-1.1090995356	 0.113789
H	 3.4529551812	-2.8513128489	-0.8368795033	 0.109486
H	 2.8573684593	-2.1454612804	-2.344918414	 0.111196
H	 2.2180586362	-2.0604774105	 1.5448473951	 0.084908
H	 0.6049449269	-0.1530402028	 2.2245057313	 0.084908
