21
gdb 15431	3.51778	1.11626	0.96561	2.1314	76.21	-0.216	0.0659	0.282	1301.1302	0.18752	-366.225707	-366.216118	-366.215174	-366.260396	34.293	
C	-0.0688247567	 1.525808127	-0.2325613745	-0.380641
C	 0.1692490599	 0.0194600068	-0.1014503989	-0.160829
C	 0.4755549145	-0.4041034447	 1.3358114264	-0.130515
N	 0.6270416215	-1.856504625	 1.4145484449	-0.090952
C	 1.9594246511	-2.424326333	 1.2221950249	-0.248941
C	 1.3058523701	-2.4579396841	 2.5601461191	 0.004055
C	 1.8545313044	-1.670155842	 3.7344355186	-0.115653
O	 2.8714389384	-0.7680600466	 3.3201129555	-0.403204
H	 0.8070713234	 2.0979212313	 0.0937173676	 0.112403
H	-0.2809314044	 1.8062612551	-1.2688038854	 0.111385
H	-0.9191869717	 1.8488292541	 0.3788703113	 0.111309
H	-0.7068755624	-0.5375336773	-0.4526001003	 0.102672
H	 1.0047689048	-0.2815742791	-0.7461490166	 0.09628
H	 1.3594384081	 0.1349000201	 1.7071246237	 0.103205
H	-0.368484787	-0.1266634259	 1.9820448702	 0.08839
H	 2.0143064348	-3.3214294748	 0.6103978358	 0.105438
H	 2.795523663	-1.7374550135	 1.1152910663	 0.128113
H	 0.8403455378	-3.3880195477	 2.8862178766	 0.087484
H	 1.0303022486	-1.131590962	 4.2296337795	 0.095537
H	 2.2504557327	-2.3941962578	 4.464552223	 0.095311
H	 3.0770879492	-0.1897263307	 4.0605946121	 0.289152
