17
gdb 37141	3.1968	1.73004	1.70669	3.9321	70.4	-0.2382	0.0704	0.3085	874.2054	0.139279	-417.90954	-417.90308	-417.902136	-417.940094	26.658	
C	-0.0031362901	 1.5371067592	 0.1214457759	-0.119584
O	 1.3663447317	 1.9401189129	-0.0200416453	-0.26352
C	 2.0836167406	 0.9980768455	-0.8299882445	-0.119586
C	 1.3477750919	-0.3079257996	-0.6662011161	 0.180052
N	 1.0265740822	-0.6683248254	 0.7125519547	-0.365009
C	 0.0034793998	 0.0393241299	-0.0532863456	 0.180036
C	-0.6820215777	-0.8423557641	-1.085729577	-0.135616
N	-0.3100868634	-0.3122520236	-2.4210871354	-0.319959
C	 0.6419334293	-1.1844003797	-1.6893170359	-0.13562
H	-0.3310404997	 1.8830478397	 1.1058050866	 0.112035
H	-0.6394638574	 1.9866879308	-0.6538283372	 0.106859
H	 2.0733822207	 1.2859362488	-1.8907067334	 0.106863
H	 3.1146666669	 0.9929701868	-0.4652044838	 0.112035
H	 0.8088428833	-1.6580978974	 0.7958760297	 0.232786
H	-1.5638251754	-1.4599353455	-0.9605742405	 0.099415
H	-0.7789394567	-0.8889343964	-3.1230047464	 0.229396
H	 0.9829874741	-2.117896862	-2.1216520057	 0.099417
