17
gdb 77142	2.72827	1.34506	1.0109	12.1153	72.91	-0.1813	-0.0365	0.1447	1167.9405	0.134828	-455.144466	-455.135219	-455.134275	-455.179081	33.319	
C	 0.1067849143	 1.1999947128	 0.6457386848	-0.370361
N	 0.1348212446	-0.1339463912	 0.0819837086	 0.012942
C	-0.9691071439	-1.1519926222	-0.0481100941	-0.112398
C	 0.151514312	-2.140747046	-0.4913095872	-0.353623
C	 1.0766462066	-0.9808830832	-0.2345102946	 0.458046
N	 2.3990821687	-0.8243976751	-0.278954166	-0.581479
H	 2.9870045559	-1.6270411716	-0.4266050829	 0.296587
H	 2.840358254	 0.0273156694	 0.0293524529	 0.288238
C	-1.6648746764	-1.4439610627	 1.3378187884	 0.363856
O	-2.0336521927	-0.4001446353	 1.9122209289	-0.471349
O	-1.7223498426	-2.6423860652	 1.6343214206	-0.451311
H	 1.0570658757	 1.4241808751	 1.1396496183	 0.122639
H	-0.0838397135	 1.9445880149	-0.1338902129	 0.143403
H	-0.7139718223	 1.1797941736	 1.3731721964	 0.226813
H	-1.6853838685	-0.8662905672	-0.8220985753	 0.11029
H	 0.2381291375	-2.9722830188	 0.2107731801	 0.181231
H	 0.1345518606	-2.4935658176	-1.524286756	 0.136474
