23
gdb 40211	2.73779	1.40068	1.08048	0.1303	90.35	-0.2316	0.0244	0.256	1212.4561	0.208426	-351.159668	-351.151324	-351.15038	-351.192284	33.944	
C	 0.0550796117	 1.5339509311	 0.0098390765	-0.326896
C	 1.3397091709	 0.7385927711	-0.0068495913	-0.297064
C	 0.0063019159	 0.0243511439	 0.0019730961	 0.404771
C	-0.4101383207	-0.6531068661	 1.2995281702	-0.266135
C	 0.2162898257	-2.0412093921	 1.5438140483	-0.24898
C	-0.3042411079	-3.1455508484	 0.6541163471	-0.048958
C	-0.3170029224	-3.1381921298	-0.6790560959	-0.048959
C	 0.1865183638	-2.0240423228	-1.5663110833	-0.24898
C	-0.434972817	-0.6387872146	-1.2947711692	-0.266135
H	-0.2126778312	 2.0515434846	 0.9253253549	 0.105905
H	-0.23010168	 2.0615893387	-0.8945836723	 0.105905
H	 1.9232649428	 0.7322167374	-0.9219752818	 0.106113
H	 1.9406768971	 0.7221764909	 0.896810356	 0.106113
H	-0.1290067917	-0.0003254712	 2.1350116307	 0.085315
H	-1.5040508077	-0.7437849476	 1.3296606313	 0.094067
H	 1.3070525622	-1.9543188325	 1.4310100035	 0.107886
H	 0.0444208213	-2.3181085617	 2.5891836042	 0.093467
H	-0.6937872084	-4.0251300348	 1.162250621	 0.080915
H	-0.7162978264	-4.0121500087	-1.1893182329	 0.080915
H	 1.2792496507	-1.938286363	-1.4734549313	 0.107886
H	-0.0053588956	-2.2894041652	-2.6111918783	 0.093467
H	-1.5292711369	-0.7292435953	-1.3049557136	 0.094067
H	-0.1698184064	 0.0232065961	-2.12822686	 0.085315
