23
gdb 104202	2.28171	1.33525	1.28539	1.1116	81.73	-0.2395	0.0769	0.3164	1194.6692	0.202328	-425.414912	-425.404307	-425.403362	-425.449575	40.16	
C	-0.0178892575	 1.4099359262	 0.3092678061	-0.250813
O	-0.1458602122	 0.0268902654	 0.5514268761	-0.289832
C	-1.3266485221	-0.5813852408	 0.0614864236	 0.387176
C	-2.5745265133	-0.0707238126	 0.7793943122	-0.438337
C	-1.4922880569	-0.6462731232	-1.4902237125	-0.282288
C	-1.8259747612	-2.1559295099	-1.3591705743	-0.286233
C	-1.2095462959	-2.1422773656	 0.0732637059	 0.357644
C	 0.2265175937	-2.6517228214	 0.1150146418	-0.441351
O	-1.9840464977	-2.729150391	 1.1033105499	-0.478042
H	 0.9948569852	 1.6912076544	 0.6097258973	 0.123897
H	-0.1478136964	 1.6565011757	-0.7550871437	 0.104584
H	-0.7306129421	 2.010270328	 0.8917475439	 0.109273
H	-2.7481814125	 0.9854224332	 0.5513450071	 0.104969
H	-3.4598566481	-0.6308258806	 0.4707963437	 0.124709
H	-2.4628782655	-0.189633254	 1.8596407889	 0.130368
H	-2.254471717	-0.003266961	-1.9355878872	 0.095628
H	-0.5397521433	-0.4747456265	-1.9979838075	 0.104768
H	-2.9010784278	-2.3438733719	-1.3158286589	 0.106662
H	-1.3735107968	-2.8343414044	-2.0868450894	 0.091785
H	 0.8457678138	-2.1838189916	-0.6536072993	 0.122234
H	 0.6787310273	-2.4415721009	 1.086801885	 0.133318
H	 0.2374954904	-3.7357258529	-0.0590013967	 0.094905
H	-1.7663706141	-3.6657165249	 1.1458585882	 0.274977
