17
gdb 65467	4.50081	0.74565	0.71407	1.0264	72.16	-0.2612	-0.0502	0.211	1555.6236	0.131165	-458.9622	-458.95233	-458.951386	-458.998558	33.538	
C	 0.0966034599	 1.5464271851	-0.1760321485	-0.471909
C	-0.0577004815	 0.0734441993	 0.0952145498	 0.270937
O	 1.1156466616	-0.7647047922	 0.0442317843	-0.280235
C	 0.4636284246	-0.6238171676	 1.3013069723	-0.004344
C	 1.2209189727	 0.064148964	 2.4169315453	-0.319289
C	 2.3391278138	-0.8228407721	 2.9436587864	 0.161642
O	 2.4983194515	-1.0935350018	 4.1043086362	-0.22905
C	-1.2426328511	-0.5952104734	-0.5457092625	 0.126899
O	-2.1587299484	-0.0025481722	-1.0528629679	-0.247029
H	 0.9870162027	 1.9576597807	 0.3001502733	 0.129294
H	 0.1731957874	 1.7179349189	-1.2534025957	 0.147227
H	-0.7859636939	 2.0848426911	 0.1792506312	 0.148557
H	-0.0683838165	-1.5243265422	 1.6184096006	 0.109304
H	 1.6825091642	 0.9854834567	 2.045411673	 0.132172
H	 0.5513288438	 0.3132867267	 3.2451727429	 0.135179
H	 3.0224842977	-1.209576541	 2.1561174281	 0.100351
H	-1.1914897888	-1.70621008	-0.5149671087	 0.090294
