17
gdb 64828	3.05003	1.07923	0.97613	1.9421	70.07	-0.2616	-0.0842	0.1774	1266.822	0.132508	-458.980568	-458.971266	-458.970322	-459.015353	33.075	
C	-0.1962290514	 1.7169184094	-0.4587590866	-0.467653
C	-0.0992727553	 0.2402232163	-0.1704241324	 0.456159
C	 1.0907633321	-0.5687732423	-0.5829384788	-0.317152
C	 0.809599822	-0.3134671092	 0.8857833983	-0.301157
O	-1.3344654681	-0.4648369118	-0.3673182816	-0.260594
C	-2.3024636197	-0.2752000202	 0.5302001532	 0.324031
O	-2.2682194507	 0.4368566116	 1.5024923898	-0.341431
C	-3.5569319762	-1.0976591619	 0.2070780555	 0.093606
O	-3.6713143144	-1.834776842	-0.7305798774	-0.212199
H	 0.7939143178	 2.1744724163	-0.3827487106	 0.124354
H	-0.5722625147	 1.886306113	-1.4729295737	 0.129415
H	-0.8592725963	 2.2119096214	 0.254441092	 0.150046
H	 0.899753759	-1.5664566994	-0.9604368953	 0.134075
H	 1.9149267798	-0.0493270319	-1.058660555	 0.120543
H	 1.4341867103	 0.3864078427	 1.4293580338	 0.12549
H	 0.4462007351	-1.1455700119	 1.4768106094	 0.128044
H	-4.3519002992	-0.9239433103	 0.9601302894	 0.114423
