17
gdb 54463	3.35309	1.45776	1.17216	3.1569	72.84	-0.231	0.0177	0.2488	1048.4264	0.136513	-417.958239	-417.950439	-417.949495	-417.990439	30.708	
N	 0.1383360822	 0.8882272641	-0.8013283906	-0.545182
C	-0.0435968478	 0.0346188413	 0.239364651	 0.334398
O	 0.7415056684	-0.1095610389	 1.1618505697	-0.385682
C	-1.3166220104	-0.7355629431	 0.1533434644	 0.263383
C	-1.9223679046	-1.3963556353	 1.3621572703	-0.349492
C	-1.5020581662	-2.2486175239	 0.2084480212	-0.111637
C	-2.4087771735	-2.0902151449	-1.0247211781	-0.035669
C	-3.5238562329	-1.1310260764	-0.8747310972	-0.255325
N	-2.1635949395	-0.6065853733	-1.1045630916	-0.200454
H	 0.9921704491	 1.4168990849	-0.8538193021	 0.258637
H	-0.5193951596	 0.8864252334	-1.5645457779	 0.269668
H	-1.2140481983	-1.4013033433	 2.1839617754	 0.156876
H	-2.9564158361	-1.2618222833	 1.6571797085	 0.117111
H	-0.7233585592	-2.9954610887	 0.2790106125	 0.116883
H	-2.2948159567	-2.7110690661	-1.9071733868	 0.107048
H	-4.1591705309	-0.9892329141	-1.7445178987	 0.129248
H	-4.0292119241	-0.9666477825	 0.0692701902	 0.130189
