16
gdb 71075	2.65175	1.61605	1.35344	3.8501	69.84	-0.2383	0.0011	0.2394	988.4331	0.123289	-437.83849	-437.830608	-437.829664	-437.87062	30.296	
C	-0.1287222546	 1.5553791637	-0.0625031496	-0.52481
C	-0.0859213984	 0.0699701138	 0.0038175372	 0.317868
C	 0.0549733701	-1.0056753331	-1.0799828407	-0.357227
C	 1.271118526	-1.4742048165	-0.3834173693	 0.435283
O	 2.2505516836	-2.1108763729	-0.6116970406	-0.319976
N	 0.8725210582	-0.7659378765	 0.8746959603	-0.249506
C	-0.322083598	-1.6184025247	 1.2915416172	-0.258782
C	-1.0436748107	-1.0462475511	 0.0753743855	 0.327588
O	-2.3804278467	-0.9924961283	-0.2125394281	-0.452593
H	 0.8355538878	 1.9582573364	-0.3867855918	 0.142413
H	-0.8960494225	 1.8789136582	-0.7717239533	 0.141394
H	-0.3663942272	 1.9814433683	 0.9171456258	 0.141109
H	-0.2428107875	-0.9832562593	-2.120413439	 0.114638
H	-0.1068380512	-2.6906937426	 1.3491979599	 0.119441
H	-0.7365744533	-1.2599522018	 2.237439166	 0.12528
H	-2.6742593356	-1.8619624835	-0.5087275095	 0.297882
