16
gdb 81954	2.50446	1.78579	1.2232	2.8067	63.65	-0.2574	-0.0392	0.2182	994.5062	0.124129	-475.008953	-475.000852	-474.999908	-475.041414	30.615	
O	-0.1344364944	 1.477443852	-0.0488388682	-0.437072
C	-0.0942683382	 0.0797766624	-0.0233633298	 0.083431
C	-1.4386258389	-0.6352780525	-0.0167993018	-0.080005
N	-2.067913008	-0.6290540249	-1.3499083676	-0.326966
C	-1.3639788062	-1.8419777124	-0.8954682778	-0.080004
C	 0.0309567539	-1.9445185774	-1.4973672328	 0.083431
O	 0.1022131007	-2.3481068977	-2.8344439331	-0.437072
C	 0.526691085	-0.5131311474	-1.2886854279	 0.283675
O	 1.1641640977	 0.1148811559	-2.0969998408	-0.330142
H	 0.2917632764	 1.7489335863	-0.8741228806	 0.297703
H	 0.4890465329	-0.2647242042	 0.8485508351	 0.09946
H	-2.0569993964	-0.6166791976	 0.873550177	 0.101628
H	-3.0727203354	-0.7533529944	-1.2645636975	 0.243142
H	-1.9254813554	-2.7427370708	-0.6745579274	 0.101628
H	 0.6347824721	-2.6205684083	-0.8668723297	 0.099459
H	 0.4997570341	-1.6127426992	-3.321932847	 0.297703
