17
gdb 38828	3.14004	1.83313	1.3317	2.6358	72.21	-0.2369	0.0265	0.2634	944.82	0.138729	-417.967807	-417.961014	-417.960069	-417.999031	27.025	
C	-0.051516687	 1.4703857264	 0.1391710785	-0.303804
N	 1.2338313417	 0.7866604587	-0.1112208894	-0.157732
C	 1.6335274152	 0.2088355647	 1.2224868553	-0.189907
C	 0.3689507275	-0.6767658948	 1.2853435109	 0.061883
O	 0.6836876975	-2.0582898496	 1.1016429794	-0.242898
C	 0.3143061333	-2.6610543363	-0.061761938	 0.134341
N	-0.280159575	-2.2071757183	-1.0782328363	-0.268427
C	-0.6794430049	-0.8037073861	-1.1062259197	-0.259225
C	-0.0756647523	 0.0060715498	-0.0017055752	 0.280115
H	-0.227274947	 1.9368140229	 1.1077516713	 0.111284
H	-0.3912381947	 2.0569219611	-0.7099370095	 0.128758
H	 2.5417456712	-0.3880934782	 1.1285022387	 0.128676
H	 1.758566481	 0.9573505256	 2.0114435501	 0.108408
H	-0.2838341439	-0.6092052972	 2.161353391	 0.092459
H	 0.6189327076	-3.7052419117	-0.0233244581	 0.126698
H	-0.4027620313	-0.3792230873	-2.0782457185	 0.129152
H	-1.7766663589	-0.7636249798	-1.0511736404	 0.120217
