17
gdb 125968	3.70885	1.19258	1.12367	3.475	75.	-0.2151	0.0005	0.2156	1132.5596	0.137493	-414.157577	-414.149676	-414.148732	-414.190834	29.478	
C	-0.0689910031	 1.4882944713	-0.3186708259	-0.414376
C	 0.0075252324	-0.0017809379	-0.0929139236	 0.00793
C	 1.2797967359	-0.7447372032	-0.2996054509	-0.247232
N	 0.7563869992	-0.5669986698	 1.054469993	-0.185904
C	 1.4453766657	 0.2795711908	 1.9264098906	 0.364169
C	 0.9937765803	 0.7983981525	 3.1228134327	-0.17803
N	 2.0608259612	 1.4904766708	 3.5907168531	-0.144515
N	 3.112494474	 1.4091041719	 2.7636819248	-0.120368
N	 2.7391080268	 0.6778724836	 1.7479376598	-0.251231
H	 0.9017721831	 1.966999128	-0.1682846818	 0.142445
H	-0.3972560644	 1.693760319	-1.3428223733	 0.124532
H	-0.7895072106	 1.9554968549	 0.3621896514	 0.119677
H	-0.9232653918	-0.537414861	-0.2699796539	 0.093337
H	 1.2700522228	-1.7689502417	-0.6617812605	 0.116458
H	 2.1592180598	-0.1667466243	-0.5679485996	 0.144914
H	 0.0580301343	 0.7231760407	 3.6481523912	 0.145407
H	 2.1480329843	 2.0141157843	 4.4469787729	 0.282787
