20
gdb 80867	2.24938	1.7087	1.40349	2.4365	74.1	-0.2181	0.0608	0.2788	1037.4458	0.171528	-440.246848	-440.238298	-440.237354	-440.279337	33.94	
C	-0.1317272835	 1.5239265684	 0.009447621	-0.42913
C	 0.0195802003	 0.014488478	 0.0223397249	 0.005495
N	 1.0808412936	-0.5460192406	-0.9179270319	-0.139844
C	 2.0780440462	-0.3083239694	 0.2065275921	-0.244496
C	 0.9014966515	-0.6326372704	 1.1458348552	 0.410651
O	 0.8848806165	-0.2570588989	 2.4813259271	-0.499556
C	 0.6995868573	-2.1223642248	 0.8355453672	 0.038338
O	-0.5748243492	-2.5051771096	 1.3384231666	-0.449211
C	 0.8340728392	-2.0097165243	-0.7173952261	-0.209774
H	 0.8047060818	 2.0578232077	 0.1852554714	 0.121556
H	-0.5326959805	 1.8539572483	-0.9536191079	 0.122995
H	-0.8339138079	 1.8252132787	 0.7935503058	 0.121691
H	-0.9575786503	-0.4523214956	-0.1326147155	 0.079887
H	 2.9472219932	-0.9732983708	 0.2010210225	 0.097021
H	 2.4074489209	 0.728913848	 0.2290172116	 0.118076
H	 0.1937689341	-0.7809480314	 2.9068250911	 0.286506
H	 1.4862114363	-2.7359375534	 1.2949128753	 0.069914
H	-0.6564551524	-3.4613814146	 1.2818244454	 0.289864
H	-0.087111266	-2.3103561982	-1.2240459202	 0.10808
H	 1.6696869889	-2.5865258773	-1.1229096055	 0.101939
