21
gdb 95370	2.55688	1.6899	1.24901	1.4446	76.83	-0.2456	0.07	0.3157	1075.9524	0.18494	-424.249516	-424.241418	-424.240474	-424.282718	31.243	
C	 0.0492164894	 1.5663361592	 0.0348691689	-0.403322
C	 0.1311181881	 0.0430795975	-0.0242000872	 0.026869
C	 1.0537382379	-0.5297657364	-1.1181087008	-0.231972
C	 1.2460861214	-1.9982324142	-0.6982441803	-0.237631
C	 1.2535437128	-1.9900884375	 0.8479432209	 0.08156
O	 2.5578142011	-1.9830538715	 1.4226590053	-0.256011
C	 2.9137407294	-0.6411584927	 1.6325396688	 0.020847
O	 1.7266459861	 0.0768465901	 1.8806521113	-0.264672
C	 0.6381052893	-0.6226291469	 1.2730364187	 0.074197
H	 1.027113318	 1.9946265198	 0.269554541	 0.127345
H	-0.2881164907	 1.9759891623	-0.9227001057	 0.108591
H	-0.6522347608	 1.8988525455	 0.807267966	 0.113049
H	-0.8777172069	-0.3605674386	-0.197864947	 0.070148
H	 0.6298349946	-0.4250610666	-2.1211893327	 0.094712
H	 2.0110697172	 0.0057224502	-1.1191428751	 0.105635
H	 0.3978302208	-2.5982394422	-1.0481028191	 0.099352
H	 2.1564745383	-2.4610643243	-1.0867514816	 0.110029
H	 0.735560864	-2.8561522314	 1.2660433109	 0.086573
H	 3.5641720178	-0.5792235376	 2.5123095119	 0.113847
H	 3.4422031956	-0.2275064823	 0.754749382	 0.082035
H	-0.1504453032	-0.7067858923	 2.0272392239	 0.078816
