19
gdb 30093	3.55951	1.11327	1.03597	3.7663	81.68	-0.2123	0.0312	0.2436	1230.1045	0.161622	-382.101554	-382.093332	-382.092388	-382.134963	31.23	
C	-0.6291392938	 1.3474800705	 0.3063153358	-0.409541
C	-0.1601539223	-0.0819204821	 0.160994253	 0.015055
C	 1.1744515176	-0.3922154937	-0.4606893792	-0.290997
C	 0.9749972604	-0.6408124859	 1.0167597659	-0.173854
C	 1.6842803013	 0.1863189166	 2.0102829909	 0.322126
C	 2.8456287854	 0.9202383232	 1.9769151676	-0.171266
N	 3.0994610831	 1.5141467393	 3.192991923	-0.254998
C	 2.1065462524	 1.1458636556	 3.96714937	 0.009081
N	 1.2230272569	 0.3442063184	 3.3063221228	-0.305908
H	 0.2029225828	 2.0114004232	 0.5570544296	 0.132537
H	-1.0791499869	 1.7070883331	-0.6253551287	 0.118102
H	-1.3817926418	 1.4440468024	 1.0973301389	 0.109285
H	-0.9514984772	-0.7968182971	-0.0497538517	 0.08338
H	 1.2687550517	-1.2520195358	-1.1141700308	 0.112332
H	 1.7974566675	 0.4505415678	-0.7407357394	 0.121449
H	 0.856355771	-1.6849963278	 1.3002705082	 0.091183
H	 3.5177593804	 1.0434044968	 1.1412656925	 0.104415
H	 1.9716410259	 1.4213520071	 5.0027627871	 0.125953
H	 0.3755083158	-0.0510257117	 3.6782952044	 0.261666
