16
gdb 46754	2.97008	1.78478	1.43714	2.735	66.47	-0.2445	0.0001	0.2446	912.106	0.1268	-437.870884	-437.864281	-437.863337	-437.901947	26.141	
O	-0.0711851097	 0.0581345598	-0.351530052	-0.334924
C	-0.022631763	 1.2025599839	-0.0099701281	 0.433364
O	-1.1349379448	 1.8824934039	 0.4085935944	-0.229428
C	-0.8342589113	 3.2090196536	 0.8891140623	-0.109868
C	 0.6328288878	 3.4840084472	 0.5453193207	-0.002104
C	 1.1665567056	 2.1479097635	 0.0126116675	-0.194524
C	 1.453702409	 2.8914108128	-1.3063426002	-0.021554
C	 0.2511121385	 3.5450080002	-1.8498995528	-0.261095
N	 0.9648498423	 4.2171994338	-0.7421521148	-0.146287
H	-1.5219056654	 3.9129362464	 0.411781129	 0.135204
H	-1.0094211551	 3.2242229026	 1.9695186024	 0.126634
H	 1.1788102808	 3.9517850144	 1.3634578295	 0.103115
H	 2.0362706598	 1.7030672712	 0.4918437277	 0.115538
H	 2.384926103	 2.8115120714	-1.8555929583	 0.11106
H	 0.3670774446	 4.0829117847	-2.7854061359	 0.132869
H	-0.737500472	 3.1204735309	-1.6997509514	 0.142
