23
gdb 80443	2.22044	1.46955	1.21591	0.1149	92.39	-0.2072	0.0332	0.2404	1208.2697	0.205281	-351.174289	-351.164683	-351.163739	-351.208133	36.764	
C	-0.0884847855	 1.5530960844	 0.0744014001	-0.415238
C	 0.0674106531	 0.0529408138	-0.0282502574	 0.00239
C	 0.7242631592	-0.6545101833	-1.1900296352	-0.071869
C	 1.6659772758	 0.1245093632	-2.1055710127	-0.314686
C	 2.8106831992	 0.5564162039	-1.2035045552	 0.211445
C	 3.9068436703	 1.419748513	-1.7472538565	-0.496909
C	 2.6542330161	 0.0850745207	 0.0455856859	 0.235583
C	 3.5518088882	 0.2707293767	 1.2307300733	-0.505271
C	 1.3819285294	-0.6914473621	 0.17998376	-0.148687
H	 0.8190115829	 2.0795999302	-0.2304987533	 0.121194
H	-0.9109446768	 1.9043706593	-0.5594567428	 0.111741
H	-0.3155385765	 1.8513622565	 1.1040990139	 0.111077
H	-0.7897410147	-0.4921427736	 0.3627558917	 0.078305
H	 0.2270403937	-1.5296982981	-1.5926423521	 0.077165
H	 2.0295156844	-0.5040198561	-2.93095787	 0.098846
H	 1.1777410023	 0.988179809	-2.5799027544	 0.100571
H	 3.5170543547	 2.381169319	-2.1071520723	 0.12219
H	 4.6806298524	 1.6335036098	-1.0058921044	 0.120489
H	 4.3912867133	 0.9425818066	-2.6096907283	 0.120746
H	 4.4627253811	 0.8225042937	 0.9867464664	 0.119651
H	 3.0359198927	 0.8096226739	 2.0358534176	 0.126181
H	 3.8506518393	-0.6986662347	 1.650472922	 0.122291
H	 1.3732161753	-1.5775610659	 0.8084548336	 0.072795
