17
gdb 29745	3.36303	1.2477	0.91766	5.9978	83.99	-0.1981	-0.0308	0.1673	1221.1969	0.136774	-418.055679	-418.046898	-418.045954	-418.089014	32.183	
C	-0.0888113014	 1.4266134327	 0.0088195504	-0.359899
N	-0.0022401649	-0.0219496662	 0.0072764442	-0.095598
C	-0.001952497	-0.7924344048	-1.1177991801	 0.309645
N	-0.0840565554	-0.2072603705	-2.3841516608	-0.60584
C	-0.0004831538	-2.1342839459	-0.745345937	-0.226169
C	 0.0092678676	-2.169986844	 0.6566331532	-0.18108
C	 0.0227818355	-0.8625486001	 1.1262701159	 0.176229
C	 0.0930702917	-0.397380487	 2.4895859007	 0.058918
O	 0.0916868275	-1.1224967759	 3.4685845192	-0.302503
H	 0.8906420364	 1.8975894901	 0.1513839978	 0.13809
H	-0.5040712212	 1.7487385099	-0.9481533976	 0.154697
H	-0.7554611802	 1.763378763	 0.8045801019	 0.154825
H	 0.6848010151	 0.4175348698	-2.6003186242	 0.254029
H	-0.1527154131	-0.9089888474	-3.1089922857	 0.257977
H	 0.0090035039	-2.9709501088	-1.427191687	 0.095991
H	 0.029604951	-3.0389251682	 1.295554971	 0.127589
H	 0.1576534984	 0.7081780133	 2.6115657781	 0.0431
