19
gdb 37543	3.77611	1.69867	1.45039	0.2932	84.52	-0.2387	0.0198	0.2585	944.7652	0.16166	-348.66415	-348.657855	-348.656911	-348.694346	27.406	
C	-0.0937185922	 1.6046845403	-0.0826358677	-0.268901
C	 1.4081145721	 1.2689978959	-0.0082417165	-0.063024
C	 1.1974053518	 0.1328518473	 1.0283300967	-0.079059
C	-0.0564323669	 0.069434844	 0.0383115882	-0.156253
C	 1.2305836755	-0.0603308669	-0.8493305372	 0.387228
C	 1.8791955248	-0.245498387	-2.2064085345	-0.423004
C	 3.2998091805	-0.5613705133	-1.7072075264	-0.045168
C	 3.3700648617	-0.8605576179	-0.3995108559	-0.128734
C	 1.9772544449	-0.9082179339	 0.1824236806	-0.070119
H	-0.51322022	 2.1513305224	 0.7681751078	 0.088934
H	-0.4701135154	 2.0155245093	-1.0249062167	 0.090203
H	 2.2674274169	 1.9378480906	-0.0594872425	 0.07035
H	 1.1265851331	 0.2513741156	 2.1121892914	 0.064859
H	-0.881364344	-0.6430384819	 0.0958119994	 0.06941
H	 1.4723889877	-1.0844420316	-2.7886564403	 0.108659
H	 1.8444019849	 0.6430680422	-2.8461376953	 0.107146
H	 4.1495577554	-0.5525968227	-2.3829341369	 0.091177
H	 4.2842424822	-1.1393014764	 0.1138487224	 0.088498
H	 1.6271578868	-1.9417070061	 0.3190673335	 0.067797
