18
gdb 91188	4.29884	1.27087	1.04872	2.7684	79.53	-0.2145	-0.0042	0.2102	1149.3615	0.150396	-398.159332	-398.151649	-398.150705	-398.191841	28.982	
C	-0.0986090775	 1.5513271276	 0.0173436736	-0.386102
C	 0.1095601924	 0.0410966053	 0.0217409598	 0.046934
C	 0.8960925813	-0.4879818533	-1.2395482042	-0.227239
N	 1.8062959872	-1.4247368314	-0.5972650513	-0.078828
C	 2.9789905233	-2.1019984222	-0.8800240001	 0.052652
N	 3.6588759486	-2.4819041814	 0.1385700454	-0.266439
C	 2.9308442007	-1.9918823103	 1.3322906771	-0.279782
C	 1.7691210855	-1.1984954772	 0.7795313194	 0.378211
N	 0.8822676726	-0.3974156427	 1.2131934274	-0.361368
H	 0.8641399758	 2.0723732802	-0.0047338032	 0.119295
H	-0.6817560399	 1.8641923998	-0.8555859074	 0.111251
H	-0.631665766	 1.8626401044	 0.9191894754	 0.133467
H	-0.8717523029	-0.4503678919	 0.0641497446	 0.091189
H	 0.246631814	-0.9762144689	-1.970289349	 0.12215
H	 1.4423105298	 0.3216457729	-1.7421873949	 0.113747
H	 3.2601235799	-2.3123129375	-1.9064764102	 0.136112
H	 2.5924335186	-2.8405246715	 1.9383590137	 0.146115
H	 3.5863834567	-1.3862650919	 1.9651465938	 0.148635
