18
gdb 13697	4.30751	0.92963	0.81862	1.938	78.66	-0.2378	0.0328	0.2706	1413.27	0.152374	-347.760782	-347.751514	-347.75057	-347.795947	32.588	
C	-0.3058946553	 1.4760255288	 0.2035739679	-0.406972
C	 0.0032933407	 0.0012967454	 0.0998034512	 0.01729
C	 1.3692830987	-0.479604274	-0.2870144827	-0.284839
C	 0.8772728004	-0.70030202	 1.1401307871	-0.191301
C	 1.4634349709	 0.0278954562	 2.2255183318	 0.071521
C	 1.9619301377	 0.6389889339	 3.139382401	 0.04521
C	 2.5116420269	 1.3719362176	 4.2772415624	-0.190666
O	 1.5983606756	 2.2951231645	 4.8595619866	-0.404357
H	 0.5414518773	 2.0287023892	 0.6178042451	 0.133141
H	-0.5376054012	 1.8935445312	-0.7822187995	 0.11678
H	-1.1675174408	 1.6547901058	 0.8555965344	 0.119661
H	-0.8237638019	-0.6098456393	-0.2520663402	 0.090443
H	 1.4649674595	-1.3539867749	-0.9211041427	 0.116213
H	 2.1465729361	 0.2646122354	-0.4202441225	 0.124622
H	 0.5853897441	-1.7185641644	 1.3816387728	 0.106823
H	 2.8815800863	 0.6524742272	 5.0259372557	 0.115364
H	 3.3754563159	 1.9697093203	 3.9646146256	 0.13616
H	 0.771409409	 1.823258737	 5.0028315559	 0.284905
