21
gdb 10768	2.81817	1.62716	1.4842	2.6495	74.42	-0.2341	0.077	0.311	1011.6347	0.187005	-366.230217	-366.220706	-366.219762	-366.264174	35.04	
C	-0.0064512224	 1.3712006644	 0.1564595119	-0.244965
O	 0.1344990764	-0.0260977035	 0.0329802282	-0.284329
C	 0.7224435487	-0.5425786228	-1.1680255339	 0.325921
C	-0.1386677834	-0.20259007	-2.3960306647	-0.42079
C	 2.164725658	-0.0443818812	-1.3467976925	-0.418768
C	 0.7363257826	-2.0595779311	-0.9740974422	 0.018838
C	 0.9814324307	-2.6709729988	 0.3515557524	-0.248858
N	-0.3586360157	-2.7353283581	-0.2698256468	-0.338653
H	 0.9580020871	 1.8956342798	 0.126540749	 0.110386
H	-0.660480584	 1.7999877002	-0.6145426652	 0.110624
H	-0.4642762661	 1.5492458207	 1.1328874807	 0.129171
H	-0.1425063115	 0.8701757431	-2.6094335794	 0.112114
H	 0.2539772094	-0.7109234419	-3.2817816567	 0.119197
H	-1.169357268	-0.534042336	-2.2418195467	 0.128319
H	 2.7415124044	-0.2166587861	-0.4340233954	 0.124941
H	 2.6496318481	-0.5853519866	-2.1652953309	 0.11935
H	 2.2037891826	 1.0212334047	-1.5921558848	 0.112476
H	 1.081400836	-2.5906146816	-1.8596133812	 0.082124
H	 1.5017402757	-3.6220333966	 0.4233110528	 0.108759
H	 1.1160158091	-2.0003288419	 1.1937518263	 0.117815
H	-0.9316956777	-2.0140840865	 0.1651487391	 0.236327
