17
gdb 37298	3.17564	1.83624	1.73059	2.9908	69.86	-0.2324	0.0553	0.2877	856.638	0.137253	-421.716778	-421.710513	-421.709569	-421.747168	26.163	
C	 0.0144881255	 1.5671884319	 0.1175124351	-0.085754
O	 1.4663652261	 1.55355537	 0.0756350041	-0.28812
C	 1.497677426	 0.1234020314	 0.0232477244	 0.113701
C	-0.0542410162	 0.0271429349	 0.0033981683	-0.104277
C	 0.0099355325	-0.6881541468	-1.3909442273	-0.067779
C	 0.0039055163	 0.0622083825	-2.7510213719	-0.01107
O	 0.6363087277	 1.3297186562	-2.5964267527	-0.217114
C	 1.4821974846	 0.1897695005	-2.72480885	 0.022936
C	 1.5659660256	-0.5772924163	-1.3808298224	-0.099903
H	-0.336760444	 1.9386173538	 1.0884540337	 0.093932
H	-0.4195981596	 2.1609553793	-0.6872267195	 0.122754
H	 2.1394501378	-0.3115322901	 0.7961427386	 0.075497
H	-0.6296316682	-0.496147088	 0.7666267561	 0.078419
H	-0.4549944031	-1.6737052154	-1.4299526995	 0.077492
H	-0.690041501	-0.0422228855	-3.5778463064	 0.106662
H	 2.2093406865	 0.2142891396	-3.5285030267	 0.108831
H	 2.1724709837	-1.482909668	-1.4324837538	 0.073792
