21
gdb 102459	2.8034	0.88257	0.75465	1.8442	75.79	-0.2425	-0.0168	0.2257	1576.5545	0.179857	-461.37647	-461.365528	-461.364583	-461.413514	38.384	
C	-0.2356989711	 1.5510023636	-0.5766751998	-0.378966
C	-0.2623901168	 0.0285056404	-0.4759951016	-0.284552
C	-1.4597396686	-0.5154244653	 0.2877378392	 0.371056
O	-2.2314991505	 0.2090134479	 0.8788773782	-0.319944
C	-1.6608309068	-2.0285780012	 0.2551772864	-0.120965
C	-2.2456222027	-2.5078520876	 1.5845061854	-0.090582
O	-2.4587593416	-3.920405236	 1.5048679168	-0.42994
C	-2.5893024704	-2.3898611541	-0.9373170432	-0.051792
O	-2.5650408602	-3.7609038071	-1.2513034053	-0.426938
H	 0.6628465848	 1.8886886225	-1.1002298283	 0.111897
H	-1.1100390409	 1.9227584314	-1.1177794517	 0.129392
H	-0.2524771273	 2.0054264601	 0.4167796968	 0.134314
H	-0.2387134453	-0.4448780959	-1.4667242733	 0.126603
H	 0.6358650563	-0.3499115827	 0.034138899	 0.127344
H	-0.7004586402	-2.5239476396	 0.0703626871	 0.094231
H	-1.5580506855	-2.2710303043	 2.4091162392	 0.099551
H	-3.1846947632	-1.9729129057	 1.7699968363	 0.121009
H	-2.9875878553	-4.1926031169	 2.2602155007	 0.296424
H	-3.6052965937	-2.0317361063	-0.7008112514	 0.096426
H	-2.2642391557	-1.8588805181	-1.8394270338	 0.104293
H	-2.7158467952	-4.226243795	-0.416838527	 0.291139
