21
gdb 58130	2.64251	1.04623	0.91828	3.742	75.72	-0.2672	0.0092	0.2764	1362.2601	0.178139	-461.391928	-461.380975	-461.380031	-461.427547	39.743	
C	 0.0279455828	 1.4965474832	-0.197266418	-0.437802
C	-0.034387273	-0.0171469869	-0.014798915	 0.12269
O	 0.7548591191	-0.4471269398	 1.0894840396	-0.434763
C	-1.4761919039	-0.5964891133	 0.1050968675	 0.338035
C	-1.397901552	-2.1254215923	 0.1300922877	-0.431562
C	-2.2176464992	-0.0421960224	 1.3246144602	-0.437648
O	-2.1053817073	-0.1357220692	-1.1309642195	-0.231774
C	-3.3652656273	-0.4877351797	-1.4276774153	 0.166033
O	-3.9113642413	-0.1236800822	-2.4285581401	-0.282563
H	 1.0650152243	 1.8012031692	-0.3623625324	 0.127555
H	-0.5731602695	 1.8120352234	-1.0515724593	 0.152997
H	-0.3413585104	 2.022867356	 0.6914455937	 0.10862
H	 0.4099450148	-0.4934176122	-0.8968938001	 0.098976
H	 0.6943160156	 0.2228939951	 1.7776475754	 0.285138
H	-0.729948821	-2.4324993974	 0.9374223171	 0.148774
H	-2.3752306997	-2.586881914	 0.295815047	 0.114461
H	-0.9923629231	-2.4987550663	-0.8147927887	 0.130625
H	-2.3730811578	 1.0359515343	 1.2391123831	 0.133874
H	-3.1934717369	-0.5176976706	 1.454099935	 0.124274
H	-1.6351365921	-0.245534619	 2.2277537867	 0.12562
H	-3.842618432	-1.1346245859	-0.6716962346	 0.07844
