16
gdb 124318	4.60366	0.99675	0.99493	2.573	71.62	-0.2504	-0.0234	0.227	1246.5976	0.124393	-434.087634	-434.079143	-434.078198	-434.122763	29.226	
C	-0.0612842525	 1.4907736438	 0.0129698059	-0.482442
C	 0.0915406772	-0.0170834295	-0.0012040634	 0.387563
O	 1.1557414715	-0.5776034077	-0.0166865077	-0.265126
C	-1.2344078215	-0.7998983467	 0.0057708234	-0.260306
N	-1.0395940043	-2.2253342961	-0.0020100163	 0.176343
N	-0.8945820106	-2.9084483297	-1.1326824733	-0.228411
C	-0.6312212988	-4.1464667323	-0.7140181693	-0.054382
C	-0.6206435401	-4.152200436	 0.6880808632	-0.054502
N	-0.8774293704	-2.9176054424	 1.1207385152	-0.228657
H	 0.9230334907	 1.9592405949	 0.0051308506	 0.1535
H	-0.6358804404	 1.8256097923	-0.8581261229	 0.14523
H	-0.6146107131	 1.8105000866	 0.9033480244	 0.145382
H	-1.809285591	-0.5358035057	 0.8978456861	 0.156979
H	-1.8231002955	-0.5277722139	-0.8748378827	 0.157128
H	-0.4739927991	-4.9488748108	-1.4166498441	 0.125851
H	-0.4525908421	-4.9603029269	 1.381615501	 0.125851
