19
gdb 32694	6.118	0.79535	0.71319	3.7004	83.06	-0.183	0.0364	0.2194	1624.2296	0.158038	-419.238062	-419.228264	-419.22732	-419.274024	34.703	
C	 0.265395206	 1.5546917083	-0.2561628032	-0.369545
C	-0.4003790221	 0.3392811304	 0.3837538623	-0.108548
N	 0.2429591367	 0.0215437802	 1.6514010499	-0.406189
C	-0.1928283132	-0.9636064889	 2.309626501	 0.525021
N	 0.2749624172	-1.4265440576	 3.524424782	-0.428188
C	-0.4634745391	-2.5382438315	 3.9354196617	 0.310066
C	-0.193433251	-3.2576969069	 5.2082422286	-0.500925
C	-1.3731925713	-2.7475543907	 2.9750535644	-0.140187
O	-1.2363732426	-1.8041790706	 1.9667531406	-0.224525
H	 1.3270974792	 1.3605847751	-0.4371074567	 0.113922
H	-0.2095809514	 1.803704507	-1.2108831825	 0.098438
H	 0.1937232823	 2.4244033648	 0.4042059712	 0.113911
H	-1.4735048307	 0.540531425	 0.5279900508	 0.091621
H	-0.3479394896	-0.5160285863	-0.3080361543	 0.091625
H	 1.0402771434	-0.9912675529	 4.0061477233	 0.26844
H	-0.3062413129	-2.5959071098	 6.075241202	 0.138893
H	-0.8895915616	-4.0907616569	 5.3257543109	 0.144148
H	 0.8259982755	-3.660836747	 5.2331510251	 0.138933
H	-2.1511072448	-3.4800147917	 2.853187893	 0.14309
