14
gdb 17236	5.11167	1.80973	1.5986	2.7697	62.47	-0.2455	-0.0348	0.2107	791.8213	0.106665	-382.477275	-382.470964	-382.470019	-382.507811	24.005	
O	-0.2839279289	 0.482797952	-0.6760763625	-0.271317
C	 0.2010857643	 1.1062872733	 0.2392916805	 0.051616
C	 1.4163448741	 1.9187960599	 0.1149273606	 0.368909
O	 1.9169409719	 2.6954465244	 1.1978023775	-0.326264
C	 2.7639406128	 3.362061177	 0.217720567	 0.054288
C	 3.7950403848	 2.2680995893	-0.1744630955	-0.234164
C	 2.6052376171	 1.5725189078	-0.8332456269	-0.137139
C	 1.8499425955	 2.8706766344	-0.9680795339	-0.164196
H	-0.2460442356	 1.1168567654	 1.2569440747	 0.091253
H	 3.0333493915	 4.3778508963	 0.4958518259	 0.098476
H	 4.5035690715	 2.6294462145	-0.9234939007	 0.115204
H	 4.3153333346	 1.7755678828	 0.651602897	 0.111834
H	 2.5604428785	 0.7001615939	-1.4708751644	 0.121318
H	 1.293992298	 3.3357440991	-1.7697527994	 0.120182
