21
gdb 106817	2.41345	1.55292	1.14636	1.3287	78.76	-0.2482	0.0855	0.3337	1156.3954	0.18182	-424.209693	-424.200526	-424.199581	-424.243268	34.56	
C	 0.05763587	 1.266585387	-0.3065882061	-0.254585
O	-0.0634707685	-0.0188763708	 0.2784049446	-0.292886
C	-1.3275534929	-0.5767677354	 0.1608572432	 0.385984
C	-1.7994856376	-1.1577513373	-1.1505851207	-0.395962
C	-1.4822832941	-2.0700379341	 0.0232285125	 0.231254
C	-0.3049994577	-3.009524021	-0.0278843368	-0.482366
C	-2.6796370516	-2.411982597	 0.8954724952	-0.134397
O	-3.3740721339	-1.1849014317	 1.1185575011	-0.25653
C	-2.4219785373	-0.1292930395	 1.1219604439	-0.145294
H	 1.1045236805	 1.5625126634	-0.2083321031	 0.128044
H	-0.2156617459	 1.2517165526	-1.370552207	 0.11291
H	-0.569171687	 2.0112174115	 0.2038777398	 0.112613
H	-2.8336929509	-1.0136694925	-1.4484075773	 0.118547
H	-1.0785905729	-1.1626164001	-1.9614042262	 0.112292
H	 0.5547632852	-2.5212542171	-0.4941567738	 0.129809
H	-0.0042158621	-3.3180336582	 0.9797961305	 0.118238
H	-0.5377296695	-3.9145781323	-0.5999412834	 0.117093
H	-3.391491455	-3.1057576626	 0.4352951552	 0.106412
H	-2.3325288807	-2.8511489887	 1.8459139382	 0.089585
H	-1.9755186258	 0.0258447904	 2.1182289295	 0.095333
H	-2.9521050721	 0.7829736934	 0.8288440108	 0.103907
