19
gdb 92579	2.87868	1.59998	1.28125	2.5901	76.25	-0.2279	0.0271	0.2551	1040.8889	0.162066	-419.199476	-419.191753	-419.190809	-419.231692	30.003	
C	-0.0217973606	 1.5903711088	-0.0699329535	-0.386557
C	 0.0635844464	 0.0800803577	 0.0242293476	 0.062124
N	 1.0348774199	-0.5726610886	-0.8917464835	-0.330978
C	 1.4101554763	-1.5506777991	 0.150334779	-0.015338
C	 2.8926764771	-1.8207125127	 0.3110262332	-0.084057
O	 3.6279712411	-0.6715451493	 0.7526756548	-0.218556
C	 2.9902810788	 0.1880554188	 1.5765365566	 0.134669
N	 1.7635575455	 0.2764342121	 1.8754364643	-0.262392
C	 0.8154553464	-0.5979268895	 1.2219488433	-0.016812
H	 0.9623850364	 2.0419816329	 0.0679009866	 0.130432
H	-0.4069456796	 1.8869062029	-1.0518656201	 0.10645
H	-0.6970738419	 1.9884101231	 0.6945241167	 0.115073
H	-0.9437168362	-0.3592555237	-0.0502498722	 0.059597
H	 0.6448961694	-0.9652956516	-1.741938718	 0.21336
H	 0.8740353816	-2.5096208496	 0.0930824163	 0.06388
H	 3.0387629385	-2.6222711561	 1.0481890984	 0.108547
H	 3.3556845639	-2.1260363417	-0.6314182422	 0.118937
H	 3.7114081919	 0.8816608982	 2.0067209139	 0.121956
H	 0.1665264853	-1.0473794825	 1.9761520488	 0.079663
