8
gdb 169	10.3093	9.81117	5.02703	0.0597	35.3	-0.2742	-0.0055	0.2687	265.6333	0.059852	-242.18601	-242.182459	-242.181515	-242.212163	11.936	
N	 0.0151331704	 1.2610567998	 0.0092789263	-0.059724
N	 1.2202348311	 1.8132422785	 0.0003313782	-0.194466
C	 2.0319662765	 0.7544357864	-0.0135001746	-0.05024
C	 1.2504054218	-0.4117939627	-0.012279037	-0.050239
N	-0.0374785504	-0.0634966203	 0.0023922831	-0.194466
H	-0.8215034412	 1.8217486595	 0.0206998903	 0.294673
H	 3.1029214669	 0.8767068034	-0.0234000089	 0.127232
H	 1.544433295	-1.4488407846	-0.0209464973	 0.127231
