15
gdb 29636	2.48618	1.97923	1.11022	6.5683	70.12	-0.2457	-0.0352	0.2105	1016.7071	0.115067	-450.207273	-450.199392	-450.198448	-450.239624	29.314	
C	 0.008619482	 1.4614281874	 0.0197926414	-0.377115
N	 0.0030737138	 0.0025140597	 0.0315385484	-0.176644
C	-0.0649804939	-0.6901688427	-1.2404340841	 0.448797
O	-0.1406870018	-0.0347155311	-2.2548487096	-0.383062
N	-0.0333801058	-2.0595977843	-1.1740238774	-0.327827
C	 0.0462050293	-2.6131847659	 0.007305766	 0.075563
N	 0.0958202614	-2.0243444591	 1.2204340938	-0.362628
C	 0.0734890455	-0.7035721064	 1.1857915613	 0.523894
N	 0.1604307854	-0.0348822378	 2.3624187478	-0.571986
H	 0.8954030947	 1.8472639356	 0.5322376268	 0.14236
H	 0.0231068274	 1.7635207464	-1.0258314177	 0.195326
H	-0.8941069173	 1.8637373213	 0.4942405349	 0.135487
H	 0.0717163084	-3.7022105115	 0.0298819839	 0.123977
H	 0.0808490591	-0.6118663732	 3.1841901152	 0.28113
H	-0.1111016183	 0.9290220316	 2.4373750594	 0.272729
