14
gdb 21140	6.9875	1.33811	1.13895	2.1419	62.78	-0.2396	-0.004	0.2356	1025.0018	0.105755	-415.851934	-415.84403	-415.843086	-415.885087	26.97	
C	-0.006284843	 1.3795516926	 0.1214755384	-0.335572
N	 0.207084982	-0.0584263028	 0.0783097064	-0.362604
C	 0.6272007528	-0.5857481053	-0.9691683016	 0.534902
O	 0.9490338846	-0.0231658148	-2.1761419204	-0.255388
N	 1.3705624742	-1.0571191818	-3.0594238468	-0.174291
C	 1.2877879807	-2.1263970428	-2.3600067171	 0.417799
C	 1.6178935084	-3.4971216565	-2.8128562143	-0.49202
O	 0.8527889668	-1.9434424596	-1.089945208	-0.223164
H	 0.7231490306	 1.8344316846	 0.8012657718	 0.132674
H	 0.0715622071	 1.876420511	-0.852531919	 0.129775
H	-0.999279607	 1.5775776813	 0.5372416357	 0.132227
H	 1.9494899944	-3.4654467776	-3.8508369579	 0.168817
H	 2.409657289	-3.9215659281	-2.1882440332	 0.163414
H	 0.7405661996	-4.1454066402	-2.7281789043	 0.163431
