21
gdb 71929	2.74004	1.90012	1.44943	0.1626	86.24	-0.2269	0.0224	0.2494	991.1293	0.184873	-349.945557	-349.938278	-349.937334	-349.976609	30.85	
C	 0.005809077	 1.5637765589	 0.0229861186	-0.480773
C	-0.0046709782	 0.0416021124	 0.021423344	 0.318306
C	 0.2731489074	-0.6391820452	-1.3781905775	-0.279059
C	-1.0327936655	-1.4684791188	-1.2539536237	-0.013712
C	-0.935939991	-2.7872887458	-0.4396888473	-0.236556
C	-1.1182940058	-1.9831570686	 0.9035183001	-0.072773
C	 0.1641172188	-1.6831982574	 1.6352363252	-0.089534
C	 0.7698169642	-0.5977666027	 1.1510236468	-0.12624
C	-1.3861022738	-0.6979024935	 0.0586586323	-0.079858
H	 1.0184188115	 1.951854756	-0.1411564551	 0.111838
H	-0.6343297601	 1.9662653553	-0.7697257652	 0.110076
H	-0.3529123493	 1.9604096375	 0.979419418	 0.11492
H	 0.2211215853	 0.0836625414	-2.1985706139	 0.092185
H	 1.2093590151	-1.1977181154	-1.4672923983	 0.090497
H	-1.6789685732	-1.4873246094	-2.1325792364	 0.060689
H	-1.7841072241	-3.4485507443	-0.6392487422	 0.095827
H	-0.0126216075	-3.3659039117	-0.5359589057	 0.091086
H	-1.9217409602	-2.3570070611	 1.5428576743	 0.064416
H	 0.5627906032	-2.3273794933	 2.412202809	 0.089499
H	 1.7353517891	-0.2203796495	 1.4743617138	 0.085924
H	-2.2958330728	-0.1179751246	 0.2188200632	 0.053242
