19
gdb 50590	3.70967	1.22051	1.02976	3.5421	76.95	-0.2247	0.0274	0.2521	1169.4533	0.162084	-419.20567	-419.197877	-419.196933	-419.238398	29.931	
O	-0.0892971778	-0.0265730859	 0.1375612888	-0.34131
C	-0.0017821579	 1.1824403231	 0.0829331726	 0.147706
N	 1.148336515	 1.8820507711	-0.1242624072	-0.031294
C	 2.4304884529	 1.2046157005	-0.2237867035	-0.20941
C	 3.2966388077	 1.594608571	 0.9819395698	-0.146093
N	 3.3554838186	 3.0288919793	 1.2792575845	-0.084014
C	 3.7064155558	 3.9606072918	 0.2156825802	-0.245565
C	 2.3079716182	 3.8981946106	 0.7324404069	-0.009538
C	 1.1922769143	 3.332638449	-0.1572889632	-0.212837
H	-0.874823121	 1.8558947593	 0.1953715246	 0.071198
H	 2.2371051436	 0.1308445574	-0.2304429779	 0.152608
H	 2.9125618708	 1.4725055569	-1.1740028601	 0.106669
H	 2.8851835502	 1.1035943726	 1.8709627082	 0.12449
H	 4.3216580861	 1.2321970567	 0.849862208	 0.110821
H	 4.3716940016	 4.7698634442	 0.5053033958	 0.118115
H	 3.8764382254	 3.5779881482	-0.7902341158	 0.108196
H	 1.9794171379	 4.6695704389	 1.4252008599	 0.101545
H	 1.3274625567	 3.6809008353	-1.1921319082	 0.115052
H	 0.2244824217	 3.7109144401	 0.1834847468	 0.123662
