13
gdb 28848	3.1066	1.57003	1.2346	6.6834	68.75	-0.2476	-0.082	0.1656	969.7979	0.091011	-448.963936	-448.956611	-448.955666	-448.995702	27.294	
N	 0.0921752763	 1.227534749	 0.3851814211	-0.53893
C	-0.0132453277	-0.0692464622	 0.0134859502	 0.381857
N	-1.1774158025	-0.6485775865	 0.058880489	-0.316459
C	-1.369942271	-1.9565341838	-0.3111524228	 0.071085
N	-0.5850809849	-2.9719721761	-0.2147990444	-0.248179
C	 0.6940818308	-2.7709996791	 0.3049079242	 0.370519
O	 1.1404727777	-3.3241628303	 1.2725710132	-0.303057
N	 1.5096876018	-1.9208318462	-0.4951725645	-0.189985
C	 1.2093674736	-0.6861742589	-0.5662622773	-0.050422
H	 0.9919872284	 1.6573354859	 0.5119625453	 0.278269
H	-0.7130576907	 1.6663672493	 0.8035102945	 0.278983
H	-2.3758115523	-2.148112825	-0.6858675066	 0.131955
H	 1.8670850806	-0.0223231363	-1.1347644319	 0.134364
