21
gdb 122477	3.46134	0.65992	0.58807	0.8342	86.05	-0.2409	0.0501	0.291	1886.4952	0.18024	-387.040812	-387.030396	-387.029452	-387.077316	37.619	
O	-0.0925300983	 1.4274959684	-0.3592369094	-0.422237
C	-0.0102649731	 0.0747876291	 0.064797838	-0.0752
C	-1.3909439128	-0.5498074562	-0.0844725084	-0.160413
C	-1.4292609769	-2.0177930183	 0.3562856909	-0.22104
C	-2.8032181363	-2.6326990099	 0.2040144538	 0.00443
C	-3.2516135447	-3.2061472665	-1.1086068727	-0.287156
C	-2.9877798952	-4.1411758914	 0.0653961364	-0.209986
C	-1.8624639722	-5.0290727077	 0.0477717451	 0.339452
C	-0.9247346286	-5.7836081644	 0.0439517842	-0.477101
H	 0.7789121935	 1.8237782679	-0.2699857627	 0.284657
H	 0.7193534462	-0.4892164304	-0.5396244578	 0.084308
H	 0.3180333135	 0.005786944	 1.1153252402	 0.083219
H	-2.1038504374	 0.0419752965	 0.5029541594	 0.102931
H	-1.7031533899	-0.4632732257	-1.1319180595	 0.107771
H	-0.7064398662	-2.603706681	-0.2234938223	 0.108651
H	-1.1115378842	-2.0978103867	 1.4046802061	 0.100321
H	-3.5779016159	-2.1494047206	 0.7947574737	 0.090575
H	-4.2809890176	-3.0770504174	-1.4234784336	 0.117386
H	-2.5301805404	-3.2318699382	-1.9181011645	 0.125075
H	-3.8706695561	-4.5490239761	 0.5492489437	 0.111303
H	-0.0992355572	-6.4509556254	 0.0370847494	 0.193054
