17
gdb 49153	3.874	1.37478	1.17796	3.7473	80.7	-0.2388	-0.0531	0.1857	1045.9294	0.137686	-384.678226	-384.671411	-384.670467	-384.70953	27.356	
O	-0.0684427185	-0.0388657262	 0.021469491	-0.285792
C	 0.0000744104	 1.1732696374	 0.0226998834	 0.05872
C	 1.2414050345	 1.9309232933	-0.0432863722	 0.236094
C	 1.3571465158	 3.2713034216	 0.055894504	-0.16018
C	 2.7815333766	 3.6564718267	-0.0157298561	-0.08024
C	 3.8124964544	 2.8717650867	 0.8561240167	-0.062956
C	 3.2553403934	 1.5480465912	 1.3567431324	-0.229636
C	 2.6264213822	 1.3248772736	-0.0760579925	-0.16231
C	 3.5573723675	 2.483355143	-0.5745549843	-0.081041
H	-0.9195011859	 1.8002464086	 0.0618903612	 0.062213
H	 0.5401180512	 3.9704491781	 0.1942768214	 0.113993
H	 3.0795611847	 4.6690982312	-0.2591084849	 0.094263
H	 4.6428827185	 3.4236105754	 1.2798748369	 0.095121
H	 4.0707740048	 0.8412179992	 1.5269120636	 0.113418
H	 2.5727403619	 1.5377037871	 2.212177539	 0.09998
H	 2.7009349103	 0.3269706225	-0.4995655341	 0.094013
H	 4.1952471479	 2.5151760307	-1.4492302654	 0.094339
