18
gdb 83804	2.40905	1.8804	1.5978	1.351	70.57	-0.2098	0.0543	0.2641	928.0281	0.149453	-439.009963	-439.002546	-439.001602	-439.041492	29.689	
O	 0.1116185095	 1.3995778834	-0.0202142054	-0.415201
C	 0.0816320207	 0.0021795545	 0.0406948879	 0.024373
C	-0.4580700403	-0.7169394127	 1.2589276014	 0.058123
O	-0.9701577213	-0.0222678651	 2.3555345478	-0.268594
C	-1.9319237353	 1.0144466791	 2.1069842825	-0.101164
C	-2.9902231951	 0.6165888432	 1.0950747326	-0.035859
C	-2.9286566721	 1.1550549619	-0.2997172	-0.252142
N	-2.5795573107	-0.2337080576	-0.0242530661	-0.091061
C	-1.243147478	-0.7574703543	-0.0367286527	-0.074417
H	 0.7357892423	 1.706881528	 0.6463068426	 0.297133
H	 0.9017987749	-0.4860343385	-0.4881703756	 0.090813
H	 0.0468241823	-1.6102503805	 1.6118050839	 0.104302
H	-2.3959360372	 1.1956186707	 3.0795696442	 0.112691
H	-1.4176566394	 1.9281610522	 1.7955830267	 0.102003
H	-3.9555908885	 0.3402313474	 1.5135355625	 0.092357
H	-3.8463636643	 1.2808734385	-0.8687497105	 0.11034
H	-2.134656201	 1.857981651	-0.5250671076	 0.144052
H	-1.1835650367	-1.6722085011	-0.6203961541	 0.102249
