21
gdb 120662	4.57342	0.76969	0.7263	2.4309	80.75	-0.2258	0.0799	0.3057	1631.4054	0.180907	-424.174864	-424.165259	-424.164315	-424.210322	34.429	
C	 0.345780558	 1.378461905	-0.2390934706	-0.224251
O	 0.3834892411	-0.0253582168	-0.1678706874	-0.226371
C	 0.3762935467	-0.5057607574	 1.1616583355	-0.074637
C	 0.3826205	-2.0086043909	 1.1430143483	-0.106296
C	 1.6793561432	-2.7668553293	 0.8813686266	-0.35014
C	 1.0483918256	-2.7894714484	 2.232843026	 0.446686
C	 1.5970526542	-2.3524256937	 3.5894123902	-0.357448
C	 0.9471547985	-3.6607902101	 4.0893948222	-0.07238
O	 0.4534345281	-3.9735246791	 2.7664726348	-0.306399
H	 1.2174362576	 1.8387749717	 0.254600068	 0.099626
H	 0.3549352642	 1.654012713	-1.2965248088	 0.126801
H	-0.5643348009	 1.7901919832	 0.2269030723	 0.101372
H	 1.2589598541	-0.1264485585	 1.7072392717	 0.077735
H	-0.5144088574	-0.1296045125	 1.6950566555	 0.085602
H	-0.5152558251	-2.4659235263	 0.7367535706	 0.102167
H	 1.6184449468	-3.6719248391	 0.2870065697	 0.122884
H	 2.5882549897	-2.1886098966	 0.7429372119	 0.113047
H	 2.6851967486	-2.308567471	 3.6631055791	 0.115098
H	 1.1691753251	-1.4353101784	 3.9992985583	 0.114078
H	 1.6420205461	-4.4258218545	 4.4541129479	 0.1066
H	 0.1298937557	-3.5439814503	 4.8099822881	 0.106226
