18
gdb 80833	2.58229	1.69774	1.32072	4.202	71.29	-0.2453	0.0141	0.2594	1014.2072	0.148546	-439.100533	-439.092391	-439.091446	-439.132842	31.646	
C	-0.2141233399	 1.5442336766	-0.0668963428	-0.447818
C	 0.0040198791	 0.0407483486	-0.0091586706	 0.001736
C	 1.1653181927	-0.6030810277	-0.8050218001	 0.082297
C	 2.1472058886	-0.1771096786	 0.3046990687	-0.311911
C	 0.8864560172	-0.515989127	 1.1943399721	 0.173955
N	 0.6669045092	-0.1937707388	 2.5617332578	-0.629964
C	 0.7905936421	-1.9949675526	 0.8471813717	 0.447826
O	 0.6107504497	-2.9457905187	 1.5502787639	-0.368674
O	 0.9711816722	-2.0272316112	-0.506916189	-0.243299
H	 0.7097825546	 2.1236610243	 0.0122661316	 0.116676
H	-0.7022192261	 1.8266125522	-1.0055128498	 0.125355
H	-0.8684288656	 1.8497299336	 0.7554431379	 0.141797
H	-0.9495819523	-0.4792527716	-0.1458073659	 0.093514
H	 1.340209745	-0.4792112535	-1.8702719183	 0.099541
H	 3.0476524489	-0.7826119954	 0.4318721108	 0.118967
H	 2.3942669573	 0.8844509183	 0.2976157739	 0.114694
H	 0.7437477297	-1.0297374918	 3.1341092869	 0.249065
H	 1.3102372676	 0.5056986234	 2.9082033213	 0.236243
