23
gdb 117152	3.62356	0.655	0.64311	1.0506	82.77	-0.2395	-0.0095	0.23	1889.001	0.202315	-425.449915	-425.438264	-425.43732	-425.488607	40.401	
C	 0.0809062183	 1.5802116859	-0.0241835111	-0.397592
C	 0.0995782722	 0.0497712058	 0.010908413	-0.161302
C	 0.6795338925	-0.5488116784	 1.3062226535	-0.062681
C	-0.1473757089	-0.1907015217	 2.5585043571	-0.39346
C	 0.7376612108	-2.0753452829	 1.2048829571	 0.374707
O	-0.1803186016	-2.7134429226	 0.7356903071	-0.327409
C	 1.9866693275	-2.7491560856	 1.7431081845	-0.292678
C	 1.9063116959	-4.2675103508	 1.749742979	-0.075996
O	 3.1412215694	-4.7525438411	 2.257711303	-0.425201
H	 1.0824046836	 1.9964982563	 0.1349446928	 0.111958
H	-0.2744688514	 1.9382954591	-0.9953938232	 0.116315
H	-0.5794166364	 2.0021010795	 0.7395052344	 0.119405
H	-0.9097721336	-0.3500638903	-0.131021018	 0.119132
H	 0.6900764614	-0.3199363202	-0.8366179204	 0.095444
H	 1.701258612	-0.1732601399	 1.4513413929	 0.073397
H	 0.270272107	-0.652651254	 3.4592486388	 0.11666
H	-0.1650780777	 0.8896500586	 2.7217616915	 0.122854
H	-1.1775265753	-0.5424849779	 2.4451643101	 0.134906
H	 2.8428684193	-2.4229970894	 1.1359766542	 0.132651
H	 2.1946469356	-2.3738326072	 2.7538928433	 0.128897
H	 1.0567096038	-4.589116275	 2.3696349064	 0.099025
H	 1.7129572854	-4.6288780175	 0.7302374624	 0.103941
H	 3.10721436	-5.7134202208	 2.2541308514	 0.287028
