18
gdb 81915	2.17307	1.97846	1.26013	3.8776	71.1	-0.2457	-0.0049	0.2409	1022.7069	0.147843	-439.090586	-439.082308	-439.081363	-439.123394	31.622	
C	-0.5849366133	 1.4413177295	-0.0011474881	-0.427634
C	 0.0218098291	 0.0449212258	-0.0291903132	-0.103278
C	 0.9049025056	-0.3323934945	-1.2497902067	 0.053839
O	 1.690511697	 0.746952826	-1.7322613931	-0.422766
C	 1.8345349399	-1.4025214456	-0.6637890704	-0.039892
C	 3.0307010043	-0.9540494637	 0.0925532076	-0.236882
N	 1.797691556	-1.3362997384	 0.8079202558	-0.122463
C	 0.9475317071	-0.2461816121	 1.1614095831	 0.372151
O	 0.964791232	 0.3210094264	 2.2191668138	-0.321156
H	 0.1912414339	 2.2042069243	-0.1074123182	 0.129664
H	-1.3252171091	 1.5764966322	-0.7967625183	 0.108997
H	-1.0761567483	 1.6118325415	 0.9596471433	 0.147671
H	-0.7750390225	-0.7109795045	 0.0251020864	 0.1111
H	 0.3010789556	-0.7570042789	-2.0616419467	 0.077028
H	 1.0969407389	 1.4135112295	-2.0932663483	 0.291298
H	 1.8079136406	-2.3980675648	-1.094785664	 0.102248
H	 3.8661252993	-1.6320650627	 0.2371987191	 0.129151
H	 3.2856063639	 0.0995097603	 0.0514543279	 0.150922
