19
gdb 110027	2.31305	1.48751	1.04979	4.9574	71.43	-0.2608	0.0147	0.2755	1186.4476	0.159058	-460.210511	-460.201496	-460.200552	-460.244379	33.248	
C	 0.1650257925	 1.6171614821	 0.0854208954	-0.3989
C	 0.0111443112	 0.092988224	 0.0827156902	-0.180996
C	 0.4996213324	-0.5580136656	-1.2166554525	-0.15065
C	 0.6339950386	-2.0847222727	-1.2167886985	 0.062936
O	-0.4716116094	-2.6135150102	-0.5051618045	-0.423697
C	 0.5508421581	-2.3903985966	-2.7214118462	-0.102335
O	-0.3089760876	-1.3874731662	-3.2753337334	-0.221166
C	-0.3962052248	-0.3159054509	-2.4351625861	 0.457053
O	-1.0786209756	 0.6330593233	-2.6913226645	-0.33842
H	 1.2161215484	 1.9088191042	-0.0262490454	 0.104515
H	-0.4010787752	 2.0640925388	-0.7341543562	 0.15484
H	-0.1970086417	 2.0388172081	 1.0279196778	 0.110523
H	 0.5766652417	-0.3418145755	 0.9151999907	 0.097192
H	-1.0338780732	-0.1836331293	 0.2454101512	 0.125899
H	 1.4832070826	-0.1425127331	-1.4826956784	 0.107433
H	 1.5849895581	-2.4262994632	-0.7867548415	 0.077158
H	-0.4224213942	-3.5742003595	-0.5289082648	 0.290093
H	 1.5358940772	-2.3324563631	-3.2015479378	 0.113126
H	 0.110245131	-3.3692106947	-2.9301826956	 0.115396
