15
gdb 133553	3.04238	1.26772	1.26768	0.4317	57.71	-0.2479	0.0751	0.323	1019.473	0.110332	-548.234361	-548.227003	-548.226058	-548.267145	27.648	
F	-0.028086659	 0.0674365716	-0.0248938567	-0.079439
C	-0.0263514754	 1.4082994368	 0.0371846327	 0.18574
F	 1.2522990418	 1.8158806063	 0.0081908939	-0.079549
F	-0.6255501438	 1.8681920349	-1.0724375132	-0.079434
C	-0.7262402588	 1.8974025427	 1.2770521708	 0.13571
C	-2.1865967191	 1.668436659	 1.7129873238	-0.212574
N	-1.623833843	 2.5250664424	 2.8675036287	-0.146591
C	-0.3820542654	 1.6151515548	 2.7525246175	-0.212598
C	-0.9538170949	 3.3475070784	 1.7461802463	-0.212647
H	-2.9748744693	 2.1654339446	 1.1436138482	 0.116883
H	-2.4777304864	 0.6610762608	 2.01781068	 0.116904
H	-0.5441110552	 0.6040194976	 3.1318732115	 0.116928
H	 0.5266933322	 2.0623930103	 3.1606975163	 0.116869
H	-0.0860595655	 3.9192040041	 2.081798633	 0.116889
H	-1.6535428483	 3.9650638756	 1.1791954272	 0.116908
