17
gdb 52629	2.04065	1.09587	0.88245	2.5624	85.08	-0.2463	-0.0333	0.213	1415.5332	0.130437	-384.638442	-384.62752	-384.626576	-384.677545	37.141	
C	 0.0342356571	 1.5878743644	 0.1557561456	-0.499463
C	 0.0377983185	 0.1329874177	 0.1186353864	 0.052568
C	 0.0308734233	-1.0710731224	 0.1086925484	 0.08737
C	 0.0467310796	-2.5362495887	 0.0145915438	-0.200701
C	-1.3660516231	-3.1151914896	-0.2106759062	-0.406726
C	 0.9686858367	-2.8678994519	-1.1990545318	 0.162747
O	 0.6024595848	-3.4589375843	-2.1740007192	-0.238032
C	 0.6915966811	-3.1321153158	 1.1909821366	 0.325176
C	 1.2513809196	-3.6613260344	 2.1132503742	-0.461537
H	 1.0520093302	 1.9833176204	 0.2411507686	 0.154485
H	-0.411944042	 2.0065802825	-0.7526325395	 0.154484
H	-0.5400456571	 1.9588390247	 1.0115335572	 0.155293
H	-1.7941359778	-2.6941945339	-1.1220267413	 0.137705
H	-1.3098439818	-4.1999479357	-0.3197276105	 0.137039
H	-2.0071638613	-2.8697951698	 0.6376104854	 0.130855
H	 2.0040467561	-2.4916041773	-1.0741806329	 0.104204
H	 1.7334450461	-4.1150589959	 2.9439503952	 0.204533
