23
gdb 84912	2.04793	1.80993	1.19686	0.1499	90.44	-0.2325	0.0313	0.2638	1153.4636	0.208416	-351.153693	-351.145293	-351.144349	-351.186152	34.206	
C	-0.6652775883	 1.3553006154	 0.2080386492	-0.396602
C	 0.0128812069	-0.020408656	 0.0295053003	-0.040678
C	 0.5828130852	-0.15492883	-1.3723755706	-0.064451
C	 1.8176169318	 0.0500724303	-1.8381893482	-0.040326
C	 3.0785153074	 0.4948790952	-1.1387481877	-0.237986
C	 2.9043335512	 1.1007685161	 0.2598112045	-0.237706
C	 2.390688656	 0.0884323497	 1.2589152758	 0.019401
C	 1.3726929112	 0.4557261547	 2.3083269485	-0.325105
C	 0.9802185687	-0.4325807113	 1.1476583822	-0.016788
H	 0.0515955569	 2.179864388	 0.160875855	 0.120516
H	-1.3971705048	 1.5183767314	-0.5897978021	 0.110651
H	-1.1906185515	 1.4105425688	 1.1664968415	 0.114937
H	-0.8098988832	-0.7461001175	 0.0813687268	 0.075969
H	-0.1644505285	-0.4394394989	-2.1132724447	 0.077509
H	 1.9591287864	-0.1210224317	-2.9054683586	 0.078385
H	 3.7735206289	-0.3578113212	-1.0827544196	 0.104777
H	 3.582102478	 1.2236242921	-1.7889902483	 0.097124
H	 3.8659419791	 1.5031008857	 0.6029141955	 0.091588
H	 2.2236273997	 1.9567066918	 0.1971010385	 0.10071
H	 3.1343493233	-0.6502847324	 1.5503603504	 0.074239
H	 1.448751991	 0.0124814285	 3.2955697187	 0.104156
H	 1.0134707893	 1.4792812971	 2.3129577623	 0.108821
H	 0.8801617253	-1.484166076	 1.4023349908	 0.080858
