19
gdb 9287	5.72245	0.90935	0.83046	4.6186	70.91	-0.25	0.0324	0.2824	1398.4539	0.163532	-402.194991	-402.185386	-402.184442	-402.229926	33.681	
C	 0.1166208925	 1.5686865985	 0.327140927	-0.378634
C	-0.0114591526	 0.0555474919	 0.1330043352	-0.202493
C	 0.9190334211	-0.7465450758	 1.0496126537	 0.131945
O	 0.696738053	-0.4607889515	 2.427781029	-0.425944
C	 0.8178051227	-2.2513298917	 0.7847233562	-0.105151
O	 1.835825162	-2.9795062896	 1.4560060263	-0.179013
C	 1.5983830572	-3.3582125103	 2.7286821013	 0.14879
N	 2.5169736065	-3.8971379388	 3.4047432957	-0.44524
H	 1.1227936601	 1.9120566441	 0.0646760803	 0.122748
H	-0.5975838442	 2.1086897687	-0.3009279542	 0.114444
H	-0.0630915437	 1.8435653774	 1.3697285496	 0.127411
H	-1.0496053576	-0.260097966	 0.3183381745	 0.0885
H	 0.2034569269	-0.2094786774	-0.9095072808	 0.105556
H	 1.9590544251	-0.448417227	 0.8703146229	 0.108267
H	-0.2477409655	-0.5523248368	 2.6000240906	 0.277831
H	-0.1782098632	-2.6189578112	 1.0766698044	 0.093174
H	 0.9544116217	-2.4602840072	-0.2804636468	 0.120284
H	 0.5686419356	-3.1682754338	 3.056325274	 0.071509
H	 2.1649796426	-4.1483430835	 4.326006951	 0.226017
