18
gdb 36007	2.22296	1.33747	0.87354	1.05	84.16	-0.2396	0.0342	0.2738	1306.1753	0.14433	-364.704224	-364.694644	-364.6937	-364.738896	35.409	
C	 0.0578113869	-1.2164219313	-0.0906746755	-0.458246
C	 0.0511616875	-0.0189120193	 0.0144645302	 0.315108
C	 0.0328637879	 1.4347330543	 0.1130835519	-0.354451
C	 1.4423967398	 2.0837759928	 0.0385360032	-0.195461
C	 1.3154844225	 3.5360624715	-0.0928102395	 0.358223
C	 1.1941585188	 4.725251648	-0.2124083652	-0.431682
N	 2.2021448674	 1.7584650616	 1.2489553781	-0.058532
C	 3.0487469655	 0.5675000076	 1.1825229641	-0.213999
C	 3.6504595546	 1.9271574346	 1.1593485574	-0.221195
H	 0.0567063867	-2.2750387103	-0.1726950128	 0.196471
H	-0.5796974095	 1.8495546211	-0.6948844769	 0.140219
H	-0.4250895858	 1.7468877149	 1.0576423462	 0.151167
H	 1.9445794839	 1.6986045454	-0.8679802827	 0.096064
H	 1.0973740418	 5.7776987722	-0.3169131421	 0.197817
H	 3.0717239992	-0.0360323864	 2.0845980765	 0.121203
H	 3.0551393048	-0.0012172791	 0.2559563121	 0.121047
H	 4.0654041265	 2.273705548	 0.2146593023	 0.116141
H	 4.1266923215	 2.3416658944	 2.0426329426	 0.120105
