23
gdb 57331	1.99704	1.43033	1.27149	1.1218	86.75	-0.2613	0.0366	0.2979	1200.7497	0.200655	-388.265154	-388.253825	-388.252881	-388.300084	43.651	
C	-0.0826813072	 1.5639676747	 0.0702242527	-0.424091
C	-0.0086544394	 0.0263823297	 0.0420532676	 0.26347
C	 0.7418710876	-0.4800104252	 1.2880845954	-0.429706
C	-1.4428386685	-0.540461678	 0.0682631178	-0.438909
C	 0.7238063003	-0.4842054901	-1.2626799931	 0.169207
C	 2.2038822584	-0.0743230633	-1.338744869	-0.420176
O	 0.7479595576	-1.920275557	-1.2831521212	-0.462219
C	 0.0303163054	 0.001524723	-2.4689323256	 0.317393
C	-0.5330612446	 0.3622703478	-3.4687459533	-0.476968
H	 0.9102859395	 2.0214828737	 0.1076258958	 0.112457
H	-0.6063689651	 1.9574881817	-0.8055038186	 0.124744
H	-0.6252086457	 1.8925423164	 0.9629441255	 0.109993
H	 0.1441720275	-0.2881317737	 2.1851657553	 0.105098
H	 0.9250643802	-1.5553520866	 1.2218240092	 0.12921
H	 1.7018997734	 0.0262802938	 1.4232688931	 0.110646
H	-2.0065877565	-0.2507151689	-0.8235827166	 0.122757
H	-1.4412203767	-1.6326983081	 0.1406090952	 0.107674
H	-1.9800314942	-0.16030972	 0.9427741517	 0.112729
H	 2.7591039455	-0.5240004949	-0.5133972819	 0.128681
H	 2.6260041985	-0.4431990444	-2.2755731481	 0.131992
H	 2.3238174783	 1.0097148385	-1.3064114726	 0.124369
H	-0.1246933917	-2.226691633	-1.5492179395	 0.284776
H	-1.0263809927	 0.684847784	-4.3525355298	 0.196872
