21
gdb 51816	3.78901	0.89798	0.76556	2.7806	84.78	-0.2437	-0.0201	0.2236	1490.4976	0.182918	-387.122302	-387.113393	-387.112449	-387.156773	33.212	
O	-0.0742975686	-0.1110939568	 0.0049324519	-0.243007
C	-0.0008087358	 1.0905990062	-0.0076306015	 0.161084
C	 1.2813521528	 1.8895235628	-0.052760565	-0.293787
C	 1.305612329	 2.9023137564	-1.2124380235	 0.011548
C	 2.5200865988	 3.8391756113	-1.124363847	-0.203597
C	 2.4722476604	 4.9218504732	-2.2121284972	-0.264418
C	 2.0949250124	 4.3563926506	-3.5566851898	-0.038859
C	 1.5775625664	 3.139897629	-3.7208727892	-0.0627
C	 1.2805046432	 2.198995654	-2.5824172806	-0.24286
H	-0.9241972333	 1.7187498101	 0.0161697417	 0.068265
H	 1.3514575144	 2.4375404316	 0.8987144476	 0.114338
H	 2.126886574	 1.1960244454	-0.1069458561	 0.117744
H	 0.4008839289	 3.5245305401	-1.1382376724	 0.078001
H	 2.5723572523	 4.3016792611	-0.1319769657	 0.090668
H	 3.4353284003	 3.2441521489	-1.2430037243	 0.101898
H	 1.7567609492	 5.7092662708	-1.9307157141	 0.107515
H	 3.4443996762	 5.426216778	-2.2805071478	 0.104538
H	 2.264140098	 4.9914477115	-4.4231000048	 0.084522
H	 1.3455294974	 2.782304646	-4.7212968135	 0.086022
H	 2.0061095297	 1.3707236486	-2.5853379517	 0.113355
H	 0.304865854	 1.7215310211	-2.743428707	 0.109732
