19
gdb 31250	1.83032	1.74555	0.97105	1.8071	79.99	-0.1757	0.0454	0.221	1235.3809	0.160759	-419.227713	-419.218431	-419.217487	-419.262095	34.176	
C	-0.1265504912	 0.9181414897	-0.2818493171	-0.326156
N	-0.5015526726	-0.276743942	 0.4789550774	-0.392394
C	 0.4917357955	-0.8596601569	 1.2761466343	 0.246941
C	 1.0949836988	-2.1041869183	 1.1982533254	 0.166859
C	 0.8581662414	-3.1021170305	 0.1074638997	-0.194237
O	-0.5347968905	-3.2688094236	-0.2015961877	-0.414778
C	 1.9598906431	-2.2167741015	 2.3308171791	-0.255001
C	 1.8751155611	-1.0492707775	 3.0447319816	-0.093707
N	 0.9734212016	-0.229932964	 2.3957655311	-0.280812
H	 0.726954949	 0.7633557503	-0.9601400014	 0.110762
H	-0.9872297593	 1.2467122367	-0.8706382743	 0.123481
H	 0.1335681293	 1.7333027686	 0.4006244146	 0.116243
H	-0.8824876762	-0.9980322698	-0.1239419337	 0.244735
H	 1.306446755	-2.7898069118	-0.8436697252	 0.111171
H	 1.3177029771	-4.065133902	 0.3747365357	 0.096531
H	-0.9774276146	-3.4704081103	 0.6306829024	 0.280245
H	 2.588026142	-3.0620976249	 2.5708905444	 0.088673
H	 2.3728193421	-0.7237144352	 3.9432017515	 0.113592
H	 0.6241365584	 0.6459969629	 2.7437643922	 0.257851
