16
gdb 1961	6.98282	1.65194	1.46159	2.3552	64.23	-0.2449	0.0348	0.2797	872.6199	0.135949	-325.781161	-325.773546	-325.772601	-325.813146	26.737	
C	-0.3681125221	 1.5033425514	 0.1834164099	-0.338121
N	-0.3854425498	 0.0479709662	 0.2362231168	-0.325661
C	 0.5383807436	-0.5498139528	 0.8289834108	 0.465914
C	 0.868842559	-1.9989862796	 1.106429114	-0.39617
C	 2.0912678572	-1.4123819703	 1.8498703321	 0.151159
C	 3.4735285005	-1.7195945124	 1.3191855759	-0.398208
O	 1.6538005749	-0.0562742264	 1.4924349195	-0.278098
H	 0.4831855673	 1.9617756002	 0.7002170902	 0.124402
H	-0.3563135847	 1.8240451649	-0.8643123814	 0.125241
H	-1.294821145	 1.8885758287	 0.6231188691	 0.125275
H	 0.137547188	-2.5302525416	 1.7176646067	 0.133763
H	 1.1022540588	-2.5929715289	 0.2199999185	 0.13144
H	 2.0473947288	-1.5267161892	 2.9377118458	 0.093029
H	 3.5077577136	-1.6012215653	 0.2318255981	 0.127865
H	 4.215155462	-1.0489987536	 1.7632009991	 0.133837
H	 3.7520625482	-2.7495344014	 1.5665062749	 0.124333
