16
gdb 22291	3.24711	1.16986	0.90969	2.6475	77.86	-0.2305	-0.0443	0.1862	1230.3125	0.12414	-437.882028	-437.87398	-437.873036	-437.915005	30.365	
O	-0.0490392646	 1.3780396837	 0.1391848266	-0.391442
N	 0.0503782594	-0.0113832686	 0.0035886912	-0.199005
C	-1.0992300667	-0.5834947477	-0.0271495959	 0.335473
C	-1.0913682964	-2.0906491372	-0.1557973839	-0.383245
C	-2.2476120042	-2.5965048543	-1.0085404892	 0.380624
O	-2.1095963999	-3.429218063	-1.8693340426	-0.298416
C	-3.6092229364	-1.9978812328	-0.6674718521	-0.363492
C	-3.5377149489	-0.5678449018	-0.2071310127	-0.079631
C	-2.3961498093	 0.0783941411	 0.0646403272	-0.113645
H	 0.8757225196	 1.6452238789	 0.1589401586	 0.310679
H	-0.1430193981	-2.4531170717	-0.5526534699	 0.144625
H	-1.2324849527	-2.5267188041	 0.8457709194	 0.137871
H	-4.2630673088	-2.1085485283	-1.5391374095	 0.14244
H	-4.0586698031	-2.6235803732	 0.1203128646	 0.143593
H	-4.4842381189	-0.040174751	-0.1242314821	 0.110756
H	-2.4020423011	 1.1224661701	 0.3500281702	 0.122817
