17
gdb 34479	3.67657	1.48988	1.22277	1.2245	91.07	-0.2029	-0.0552	0.1477	1023.6374	0.135845	-347.426999	-347.419823	-347.418879	-347.458303	29.393	
C	-0.2165170637	-0.9640810259	 0.4066240932	-0.458713
C	-0.1446163539	 0.1928236704	 0.0661884149	 0.285516
C	-0.0202793043	 1.5227900986	-0.3764530086	 0.069053
C	-1.0649043332	 2.3887866314	-0.5252585587	-0.029205
C	-1.873888435	 2.6775059418	 0.7446525942	-0.260932
C	-0.8385921534	 3.8592799745	 0.8594313573	-0.066495
C	 0.6136424214	 3.6864025119	 0.2509959155	-0.040752
C	 1.2547378086	 2.3338293996	-0.0947638848	-0.31026
C	-0.5766885189	 3.8439910037	-0.6202614338	-0.108773
H	-0.2917563917	-1.9795526862	 0.7073309044	 0.197084
H	-2.8736834544	 3.1034066682	 0.6073166512	 0.108665
H	-1.8954852435	 1.88545914	 1.4974702086	 0.113976
H	-1.0173023662	 4.7438633504	 1.4670442419	 0.092024
H	 1.2524180836	 4.5422133332	 0.4618975806	 0.082244
H	 1.7913033376	 1.8492805924	 0.7279113603	 0.121982
H	 1.9638003481	 2.4460108256	-0.9263412731	 0.113084
H	-0.7981398011	 4.5744578104	-1.3869257932	 0.091501
