16
gdb 46281	3.21257	1.42366	1.27575	3.9478	71.01	-0.2419	0.0148	0.2568	1016.4577	0.126156	-434.066575	-434.059033	-434.058089	-434.098883	28.349	
N	-0.1567718083	 1.1449835944	 0.4350361216	-0.542319
C	-0.0123681653	-0.0391502484	 0.0221042269	 0.331262
N	 0.9828078183	-0.8146039142	-0.5598232759	-0.344453
C	 0.2321944485	-2.0781182136	-0.4620911151	-0.219721
C	-0.9726058022	-1.2374799553	 0.0590839626	 0.327166
C	-1.6740281505	-1.579499611	 1.3945781517	-0.26013
N	-3.0912467074	-1.7649588708	 1.0473142724	-0.25732
C	-3.1748621781	-1.4963012026	-0.185207794	 0.112633
O	-2.0567987354	-1.1569341109	-0.8807832169	-0.252302
H	 0.6881872447	 1.7056671539	 0.3146878638	 0.213892
H	 1.9807612735	-0.6893028389	-0.4756000049	 0.244688
H	 0.0629094091	-2.5734735981	-1.4217825744	 0.125027
H	 0.6259725043	-2.7932356225	 0.2694580571	 0.112055
H	-1.2730382726	-2.4852380893	 1.8605567041	 0.118076
H	-1.5731295465	-0.7561015053	 2.1088713306	 0.147245
H	-4.0810145122	-1.5069974873	-0.7797551896	 0.144202
