17
gdb 97471	16.73278	0.37061	0.36505	0.1549	127.46	-0.2187	-0.0351	0.1836	2962.0326	0.133619	-347.507847	-347.497224	-347.49628	-347.548229	35.397	
C	 0.044090269	 1.5619918857	 0.0104589782	-0.367522
C	-0.0086094436	 0.0215395339	 0.0019125458	-0.345727
C	-1.3643526413	-0.5044391699	 0.0120897561	 0.177555
C	-2.5016543409	-0.9280228159	 0.0207310992	-0.453231
C	-3.768959258	-1.3981329055	 0.0303724661	 0.348725
C	-4.9125532985	-1.8214941384	 0.0390797805	 0.307935
C	-6.1802494217	-2.2906610317	 0.0487362092	-0.418999
C	-7.3177259845	-2.711566248	 0.0574012882	 0.127873
C	-8.677875692	-3.2154070822	 0.0677595801	-0.517383
H	 1.0833910867	 1.9027595274	 0.0022888397	 0.11932
H	-0.4622423366	 1.9725264088	-0.866864284	 0.13401
H	-0.4449220209	 1.962118609	 0.902295866	 0.13401
H	 0.5194713104	-0.3600963403	-0.8820213191	 0.138795
H	 0.5366296138	-0.3704080745	 0.8707886728	 0.138795
H	-8.6942657792	-4.3113374903	 0.063829743	 0.158695
H	-9.2189697108	-2.8773297551	 0.9589722721	 0.158574
H	-9.234888942	-2.8707454229	-0.8110370838	 0.158574
