21
gdb 64443	2.17184	1.66342	1.24216	1.5253	78.18	-0.2392	-0.0163	0.2229	1113.5608	0.182304	-424.260417	-424.25133	-424.250385	-424.293737	34.902	
C	-0.0019032347	 1.5395177721	-0.0233009362	-0.4226
C	 0.0082530876	 0.008732963	 0.0147387931	 0.139579
C	-1.4348533828	-0.5436830481	 0.0324442989	-0.424778
C	 0.7553951121	-0.5477512504	-1.2251078694	-0.106908
O	 0.9222918628	-1.951284212	-1.1816764786	-0.240111
C	 1.7571593534	-2.3433320215	-0.1097439499	-0.089294
C	 1.1377695818	-1.9634240995	 1.2467629823	-0.309062
C	 0.7451853841	-0.4915541189	 1.2674345802	 0.369185
O	 1.0097202142	 0.2311208128	 2.2005684245	-0.319151
H	 1.0139630475	 1.9452386082	-0.0133220926	 0.120358
H	-0.508960953	 1.8962499191	-0.9261750194	 0.106448
H	-0.5209133361	 1.9437614773	 0.8484817995	 0.133287
H	-2.0011397859	-0.1172661149	-0.8027085464	 0.119545
H	-1.449940198	-1.6304443478	-0.0754786438	 0.130763
H	-1.949547873	-0.2736037599	 0.9597228393	 0.125251
H	 0.1816965188	-0.3303891428	-2.131896912	 0.110615
H	 1.736712924	-0.0520192692	-1.317051482	 0.091843
H	 1.887614789	-3.4256581263	-0.1910760676	 0.115436
H	 2.7497060341	-1.8733752238	-0.210566645	 0.098958
H	 0.2372067511	-2.5694848138	 1.402656421	 0.129784
H	 1.8253249632	-2.1555924534	 2.0743874241	 0.120852
