19
gdb 80869	2.19051	1.73582	1.48139	2.4037	70.16	-0.2452	0.0601	0.3053	1005.4438	0.158921	-460.140004	-460.131654	-460.13071	-460.172194	33.336	
C	-0.060362637	 1.500352092	-0.0643254954	-0.435194
C	 0.066707213	-0.0086110764	 0.0518349801	 0.083975
O	 0.9262754435	-0.5625509229	-0.9839314691	-0.313443
C	 1.917028899	-1.2849934619	-0.2106000117	 0.03882
C	 2.2867895068	-0.3215690151	 0.9309422687	-0.323254
C	 0.785350111	-0.5732317326	 1.2970044928	 0.314029
O	 0.2283856322	-0.3516664567	 2.5475526284	-0.481998
C	 1.0319519108	-2.0445579489	 0.8048269485	 0.133414
O	-0.0147571788	-2.8298322122	 0.3251273198	-0.447986
H	 0.9008572931	 2.008433543	 0.0506423637	 0.122132
H	-0.4678037609	 1.7693667479	-1.0430422464	 0.135361
H	-0.7537802816	 1.8792488806	 0.6960686994	 0.113769
H	-0.9299926976	-0.4615515433	-0.0289040429	 0.079338
H	 2.6320080725	-1.7579493082	-0.8795911871	 0.087857
H	 2.9668030253	-0.7606625223	 1.6627244336	 0.112573
H	 2.6059534922	 0.6824244781	 0.65096899	 0.104921
H	 0.1596136337	 0.5982184565	 2.6944989631	 0.284291
H	 1.5939001726	-2.619332039	 1.5432300458	 0.096628
H	-0.2312349798	-2.4925804988	-0.5537005013	 0.294767
