12
gdb 131014	4.69877	1.05237	0.8598	2.5816	74.4	-0.2673	-0.0761	0.1911	1223.8779	0.077589	-431.664356	-431.656974	-431.65603	-431.696626	26.465	
O	-0.0587532387	-0.0412149195	 0.0009771391	-0.234421
C	 0.0023213319	 1.150115964	 0.0099125591	 0.195766
N	 1.2014859517	 1.8929376278	 0.0016843926	-0.027161
C	 1.3221283905	 3.2586292175	 0.0114446842	 0.010413
N	 2.5766325211	 3.6082897318	-0.0008086359	-0.29765
C	 3.2325020457	 2.3866709028	-0.0184195611	 0.205617
N	 2.4374422874	 1.3279778588	-0.0177728947	-0.258394
C	 4.6449497892	 2.2794216453	-0.0363254143	 0.2922
C	 5.8440939624	 2.2040524134	-0.0513853921	-0.374238
H	-0.8673179236	 1.8311356374	 0.0260312836	 0.1139
H	 0.4683571514	 3.9202264111	 0.027025173	 0.166602
H	 6.904085601	 2.1333041696	-0.0647374334	 0.207366
