20
gdb 110712	2.46629	1.52791	1.18576	2.0871	80.46	-0.1947	0.0142	0.2089	1131.617	0.170309	-403.078859	-403.070334	-403.06939	-403.111789	33.537	
C	-0.1523653675	 1.616872895	 0.1011539588	-0.372135
C	-0.0337943891	 0.0972870901	-0.0252636493	-0.128303
N	 0.6972009571	-0.4381626664	 1.1274907415	-0.093082
C	 2.2170642468	-0.4560847001	 1.0877874852	-0.126614
C	 2.49400464	-0.9894606945	 2.4887923551	-0.070692
C	 1.6071704336	-1.9873444812	 2.5944319697	-0.074164
C	 0.8977523135	-1.9360088334	 1.2409623573	-0.091018
C	 2.164637649	-1.8502352181	 0.3191879913	 0.158731
O	 1.8722052928	-1.857478215	-1.0526501953	-0.430905
H	 0.8331398746	 2.0948397776	 0.0639950952	 0.107283
H	-0.7488230786	 2.0277007952	-0.7200468356	 0.104597
H	-0.6200218977	 1.8905878148	 1.051011366	 0.119864
H	-1.0366472602	-0.347541727	 0.0144001997	 0.092079
H	 0.3929682253	-0.1678178765	-0.9994991411	 0.10361
H	 2.7474301298	 0.4202413338	 0.7152897251	 0.06556
H	 3.2457453123	-0.6407190933	 3.1816555278	 0.103193
H	 1.4212103768	-2.6843330082	 3.3981716213	 0.10452
H	 0.0572244075	-2.5966143011	 1.0288631054	 0.070391
H	 2.9810049324	-2.5474150098	 0.5524039733	 0.070722
H	 2.7018234814	-1.8065808319	-1.5374778313	 0.286362
