20
gdb 20087	3.23748	1.45988	1.22561	1.3851	75.61	-0.2372	0.0728	0.31	1080.4274	0.176273	-348.971401	-348.962595	-348.961651	-349.004966	32.811	
C	-0.061253594	 1.5381021093	-0.0327473704	-0.413743
C	 0.0605875431	 0.032082345	 0.0556610211	-0.066893
C	 1.3942864806	-0.6564984686	-0.1576275087	 0.060873
O	 2.5523853967	 0.1171846596	-0.3083576933	-0.415329
C	 0.772627871	-0.6574054858	 1.2138578551	-0.056309
C	 1.3951437278	 0.1011453659	 2.3440905923	 0.034783
C	 0.65608477	 0.2491751376	 3.6527709035	-0.273411
C	 1.8712074598	-0.6414354043	 3.5690760503	-0.273351
H	 0.8807105693	 2.0334707027	 0.2128861172	 0.126373
H	-0.3442252259	 1.8465811133	-1.0459317844	 0.107561
H	-0.8275362249	 1.9160880806	 0.6520750352	 0.121361
H	-0.8010284277	-0.5051801247	-0.3340833193	 0.078029
H	 1.4073660487	-1.5934136862	-0.7150844281	 0.079557
H	 2.5362434133	 0.5075015833	-1.1885091541	 0.28846
H	 0.3345180198	-1.604947765	 1.5199827245	 0.076719
H	 2.0098677602	 0.9399420923	 2.0409359382	 0.095739
H	 0.738259609	 1.1879453078	 4.1898592379	 0.106983
H	-0.3148487803	-0.2275718425	 3.7410414305	 0.106243
H	 1.7157990952	-1.7150860113	 3.6026767274	 0.106951
H	 2.7881174085	-0.312959469	 4.0458252452	 0.109404
