20
gdb 102164	2.44824	1.05071	0.7781	4.0298	75.78	-0.2678	0.027	0.2947	1452.9938	0.168817	-440.295711	-440.285137	-440.284192	-440.331964	37.852	
C	 0.0509791024	 1.5592072825	 0.0858815376	-0.422411
C	-0.0403940576	 0.0348673628	 0.0057289955	 0.119603
O	 0.687011124	-0.5577641198	 1.0825897992	-0.428693
C	-1.492900571	-0.4986693208	-0.0432043943	-0.030355
C	-2.2434800089	-0.0746022894	-1.3252419223	-0.0791
O	-3.6490720443	-0.0981772521	-1.1929764664	-0.422067
C	-1.4569740741	-2.0398133887	 0.1180061582	-0.347505
C	-2.7756825898	-2.6661533627	 0.0986333218	 0.260513
N	-3.8261871481	-3.1495632754	 0.0610856936	-0.322251
H	 1.0988171628	 1.8524991575	 0.1902517082	 0.133127
H	-0.3523231526	 2.0532365397	-0.8010302306	 0.133284
H	-0.5010813762	 1.9357535824	 0.9561793015	 0.117248
H	 0.4862939308	-0.3098884295	-0.8945013113	 0.094004
H	 0.396255994	-0.1360706907	 1.8994531601	 0.281936
H	-2.0481135627	-0.0724114048	 0.8030416069	 0.093508
H	-1.9968117174	 0.9610899623	-1.5720110429	 0.111919
H	-1.8992688184	-0.6940017155	-2.1708650793	 0.091186
H	-3.9440566248	-1.0103528761	-1.0928324031	 0.300794
H	-0.8616823688	-2.4790264092	-0.6928170234	 0.151336
H	-0.9480564992	-2.3010521025	 1.0486584209	 0.163922
