12
gdb 2143	3.67216	3.44031	1.88187	4.1278	51.59	-0.2281	-0.0232	0.2049	632.5293	0.090752	-360.542541	-360.536231	-360.535287	-360.572723	23.062	
O	 0.1985618597	 1.391543177	-0.2330446822	-0.410419
C	 0.0767125355	 0.0061968038	 0.0016655224	 0.004997
C	 0.6414167231	-0.529564232	 1.2962750118	-0.191644
C	-0.2853751843	-1.2930446541	 1.8832229838	-0.018474
N	-1.475343647	-1.3400012595	 1.1358903221	-0.319759
C	-1.4019154146	-0.4920188295	 0.0414533751	 0.353934
O	-2.3072930159	-0.1960882275	-0.6970801696	-0.344597
H	-0.2544333168	 1.8549490739	 0.4800757635	 0.284666
H	 0.5569082752	-0.4735634519	-0.8617447522	 0.130242
H	 1.6501009074	-0.3624673133	 1.6413623004	 0.114456
H	-0.2207956013	-1.8637361044	 2.7994428302	 0.133965
H	-2.3539368808	-1.6970242125	 1.4755174646	 0.262632
