18
gdb 60508	3.6693	1.0387	0.86845	3.6449	83.03	-0.2315	-0.0245	0.207	1336.8211	0.145672	-401.915441	-401.905911	-401.904967	-401.950462	34.54	
C	 0.0274702374	 1.5165048614	-0.0446816536	-0.353263
N	-0.0235642337	 0.0676284017	 0.0089426685	-0.111543
C	-0.0279011804	-0.6043607487	 1.2856978586	 0.074648
C	 0.3854055428	 0.080770786	 2.5583491202	-0.307052
C	-1.061387103	-0.3119949478	 2.344275451	-0.279518
C	-0.0447160848	-0.7304023058	-1.106525876	 0.315165
O	-0.0832073984	-1.9503893912	-1.0625803662	-0.378155
C	-0.0105407242	-0.0489558617	-2.3953144075	 0.169918
C	 0.0160733132	 0.4013075516	-3.5106856258	-0.385941
H	 0.9882276495	 1.8968004714	 0.3210809785	 0.134396
H	-0.1061898492	 1.8438208281	-1.0743720663	 0.158619
H	-0.7728638062	 1.9578058475	 0.5602314792	 0.13079
H	 0.2553117744	-1.6399920113	 1.1592235269	 0.140861
H	 0.9890071388	-0.4874678289	 3.2572015936	 0.123616
H	 0.6166794299	 1.1391011372	 2.5385750147	 0.117801
H	-1.7688205486	 0.4901622786	 2.163843858	 0.117929
H	-1.4718767612	-1.1517663343	 2.8931744931	 0.125801
H	 0.0392831436	 0.7958529765	-4.4971522572	 0.205927
