19
gdb 54999	2.39177	1.15332	1.10554	3.1621	77.4	-0.2415	-0.0336	0.2079	1251.1131	0.156126	-423.058642	-423.048771	-423.047827	-423.094377	35.225	
C	-1.8839195369	 1.1170016591	-0.0202592624	-0.484822
C	-0.9600298772	-0.082142898	-0.0900614311	 0.386366
O	-0.289525518	-0.4294743278	 0.8602754424	-0.317442
C	-0.9255206138	-0.7943728278	-1.4077033646	-0.115006
C	 0.1942347707	-1.7538933845	-1.7159908718	-0.309846
C	-1.1762182506	-2.3183621026	-1.5144499783	-0.097109
C	-1.6197171926	-3.1833619732	-0.3551764235	 0.37374
C	-0.6192674786	-3.5704066716	 0.7110364325	-0.505488
O	-2.7605967143	-3.5914428858	-0.3478670471	-0.311777
H	-1.8585176734	 1.5497781023	 0.9799653687	 0.145026
H	-1.5803717551	 1.8703138561	-0.7565922763	 0.142569
H	-2.9076452678	 0.8191395055	-0.2738909421	 0.150931
H	-1.3547884542	-0.2351040295	-2.2321778624	 0.100322
H	 0.6109125974	-1.7507610126	-2.7167670353	 0.124993
H	 0.9113685199	-1.8854103388	-0.9133046217	 0.14532
H	-1.7464466365	-2.5690515249	-2.4033638789	 0.119731
H	-0.191305318	-2.6801799256	 1.1791258814	 0.181738
H	-1.1148532531	-4.1947952369	 1.4551882471	 0.135871
H	 0.2070175823	-4.1292599232	 0.2557823936	 0.134884
