19
gdb 71116	2.94052	1.91883	1.63986	1.2071	78.22	-0.2234	0.0179	0.2413	910.5012	0.161502	-385.902272	-385.895455	-385.894511	-385.932779	29.435	
C	-0.0038326901	 1.4909442712	 0.0562378433	-0.477015
C	-0.0270606222	-0.0190032916	-0.0517854894	 0.321356
C	 0.7466406056	-0.6237977713	-1.2602324252	-0.25279
C	 1.037803136	-2.0186174969	-0.7486979799	-0.127937
C	 1.0074241525	-1.8836673675	 0.7383034326	 0.096947
O	 0.7008452777	-0.5716161726	 1.092224049	-0.281416
C	-0.126773565	-2.6566226944	 0.0390077145	-0.139435
C	-1.4290532949	-1.9702363809	 0.0249811549	-0.054991
C	-1.4056895368	-0.6332729761	-0.0201553295	-0.117139
H	 1.0245046676	 1.8606261074	 0.0807959808	 0.121631
H	-0.5174312327	 1.9379017901	-0.8006965092	 0.118654
H	-0.5116205563	 1.8170577295	 0.9687387556	 0.128153
H	 0.1475216641	-0.5905151506	-2.1736033611	 0.105619
H	 1.6847436689	-0.082950425	-1.4263767802	 0.100951
H	 1.7288917986	-2.6694759766	-1.2686498911	 0.090848
H	 1.6688749872	-2.3733636208	 1.4410177698	 0.103837
H	-0.1073669969	-3.7364824983	 0.1267381141	 0.083721
H	-2.3458997053	-2.5457641185	 0.0990258511	 0.093635
H	-2.2918848581	-0.0093760172	 0.0054215301	 0.08537
