20
gdb 84873	2.29635	1.56591	1.03963	1.4189	83.42	-0.2337	0.0067	0.2405	1211.6738	0.170598	-403.159843	-403.150652	-403.149708	-403.194511	34.023	
C	-0.585419072	 1.5240623362	 0.103895498	-0.372463
C	 0.0431145103	 0.1170354299	-0.0118204563	-0.008466
C	 0.5999388589	-0.075641171	-1.402668972	-0.036528
C	 1.872050441	-0.0335622653	-1.7825415551	-0.101894
C	 3.026136193	 0.2056253036	-0.8522373445	-0.139598
O	 3.0459630226	-0.5951098026	 0.3318401221	-0.253127
C	 2.0648764853	-0.4557144888	 1.2752530486	 0.375073
C	 2.6408759313	-0.8060510767	 2.6234878219	-0.433562
N	 0.8504663492	-0.1281641942	 1.1674094907	-0.30588
H	 0.1847346047	 2.2949399731	 0.0030798529	 0.116519
H	-1.3342434918	 1.6831918555	-0.6779172008	 0.110644
H	-1.0617602947	 1.634800152	 1.0810893597	 0.127497
H	-0.792116183	-0.5938941518	 0.0841838539	 0.098901
H	-0.1646879134	-0.2288323895	-2.1633392995	 0.090743
H	 2.1214987316	-0.1538935143	-2.8335262346	 0.09392
H	 3.970804641	-0.0285824515	-1.3494135843	 0.119225
H	 3.0681557995	 1.2643484337	-0.5566455324	 0.116526
H	 3.4355133755	-0.1021702443	 2.8926805771	 0.129798
H	 1.8577336215	-0.7879491442	 3.379751486	 0.136561
H	 3.0962747194	-1.8010275496	 2.5846634186	 0.136112
