17
gdb 79272	2.66039	1.67033	1.33309	2.2146	72.26	-0.2534	-0.0343	0.2191	986.2428	0.135673	-421.78108	-421.773377	-421.772432	-421.813556	29.661	
O	 0.0067355986	 1.5150951543	-0.3530852829	-0.440596
C	 0.0420845229	 0.1161742642	-0.2386258099	 0.111145
C	-1.2849835766	-0.5949711902	-0.0565451719	-0.09148
C	-1.8791447113	-0.8510630339	-1.4463973167	-0.064032
C	-0.9173947795	-0.2569618631	-2.470381332	-0.273333
C	 0.2253328196	-0.7448414059	-1.5205954898	 0.181986
C	 1.5823591467	-1.018770134	-2.0579997676	 0.025777
O	 2.5736894212	-0.4254556656	-1.7003543428	-0.258231
C	-0.8181480981	-1.7687827911	-0.8953093747	-0.151686
H	 0.9157115155	 1.8185325731	-0.4549551838	 0.291557
H	 0.7593407835	-0.2114859204	 0.525114991	 0.080633
H	-1.897575611	-0.6344951445	 0.8344820125	 0.094205
H	-2.9349260004	-1.0556094967	-1.5665554406	 0.094241
H	-0.9269906633	-0.8239068499	-3.4054597526	 0.10219
H	-0.9438223683	 0.8183906562	-2.665349773	 0.117725
H	 1.6420275019	-1.8063273206	-2.8433196933	 0.077356
H	-0.7797546812	-2.8269767718	-0.6862346218	 0.102542
