21
gdb 105456	2.64709	0.9345	0.77711	1.8418	84.66	-0.2557	0.0573	0.313	1531.9307	0.179569	-387.041663	-387.031383	-387.030439	-387.07764	37.531	
C	-0.4968533841	 1.2719128819	 0.9151812621	-0.388524
C	-0.1413194117	-0.0262275206	 0.1805292891	-0.246708
C	-1.3141158715	-0.9592142149	-0.0747788524	 0.413875
C	-2.4713733866	-0.4419362652	-0.9286160509	-0.282113
C	-3.6323924715	 0.1403646139	-0.0885579602	-0.346201
C	-4.7482519353	 0.5770770671	-0.9174811847	 0.291681
C	-5.6531228556	 0.9286509615	-1.6267107747	-0.438876
C	-1.0743671298	-2.4105131272	-0.0009644537	-0.227007
O	-1.7241652036	-1.728808999	 1.073296609	-0.277077
H	 0.4076820723	 1.8475414399	 1.1331171184	 0.116055
H	-1.154790324	 1.9132971685	 0.3203613553	 0.12232
H	-0.995189463	 1.0571697474	 1.8654567202	 0.132677
H	 0.3274314798	 0.2101786413	-0.7838428662	 0.101264
H	 0.6027433205	-0.5775289271	 0.7653956194	 0.105062
H	-2.1023243775	 0.3200086836	-1.6230217123	 0.113084
H	-2.8739329699	-1.2529824108	-1.5425013052	 0.114656
H	-3.9640670116	-0.6276371337	 0.6184168435	 0.150163
H	-3.2780157954	 0.979769084	 0.5196497154	 0.132548
H	-6.4621110612	 1.2421189082	-2.2384708594	 0.192017
H	-1.7048573037	-3.0915329074	-0.5717899527	 0.111847
H	-0.0757371766	-2.7860515713	 0.22152385	 0.109256
