14
gdb 35588	3.50275	1.10076	0.95053	3.1102	75.9	-0.2511	-0.0438	0.2073	1202.5218	0.101596	-395.714184	-395.70617	-395.705226	-395.747193	29.264	
C	 0.1309642971	-1.1137339601	-0.138115289	-0.363336
C	-0.0014212288	 0.0780871869	-0.0601734099	 0.25867
C	-0.1012908915	 1.4971124422	 0.0244161845	 0.236553
N	-1.1916172311	 2.1605841403	-0.0791984541	-0.28991
C	-0.8421447158	 3.5710641302	 0.0890426779	-0.186222
C	 0.7261801297	 3.6379404839	 0.0267377645	-0.150754
N	 1.063325569	 2.2347770916	 0.2905386318	-0.347909
C	 1.2312239492	 4.0980469664	-1.2765081707	 0.268857
N	 1.642159746	 4.4535918356	-2.2967283615	-0.312415
H	 0.2256905945	-2.1699841301	-0.2075626356	 0.212824
H	-1.3160117	 4.1884939343	-0.6768674104	 0.142593
H	-1.1907675613	 3.9207047638	 1.0679192881	 0.132363
H	 1.1349915166	 4.2939550861	 0.7999636392	 0.137165
H	 1.9371748864	 1.8793778991	-0.0724047548	 0.261523
