16
gdb 93123	2.16728	1.72222	1.25984	3.6811	69.26	-0.2463	0.0061	0.2523	1022.642	0.125928	-434.079805	-434.071443	-434.070499	-434.112857	30.637	
O	-0.0675579953	 1.4178127946	 0.0375105268	-0.42651
C	 0.0211813272	 0.009812987	 0.0234998931	 0.099909
C	 0.7892100966	-0.5730947955	 1.214620172	-0.205825
N	 0.6621722213	-2.0209212481	 1.3606101502	-0.249135
C	-0.3499106746	-2.5761649619	 0.8278655352	 0.095566
N	-1.3377252927	-1.9806166445	 0.0589320471	-0.296595
C	-1.4231403028	-0.53006274	 0.0273924201	-0.150151
C	-2.2070407886	 0.0091298774	 1.1588318834	 0.302911
N	-2.8514192934	 0.3785261025	 2.0437960865	-0.326773
H	 0.809633911	 1.7785665344	 0.2016217863	 0.296506
H	 0.4753176205	-0.3526358754	-0.9112380428	 0.094992
H	 1.854602808	-0.3301469275	 1.1127496966	 0.10529
H	 0.4429791144	-0.0828651075	 2.1349273797	 0.138062
H	-0.4775979704	-3.6545219061	 0.9277600368	 0.121046
H	-2.2005189364	-2.4909159662	-0.049896615	 0.257952
H	-1.9174309547	-0.2117365231	-0.8963152261	 0.142756
