23
gdb 106547	1.93134	1.49384	1.13832	1.4078	86.76	-0.2619	0.074	0.3359	1245.6705	0.205084	-388.239053	-388.229278	-388.228334	-388.273399	37.178	
C	-0.1177276518	 1.6409917247	 0.1732094267	-0.444326
C	 0.0132575577	 0.1234565268	 0.1333151871	-0.001819
C	 1.1479480437	-0.5874345995	-0.6763299342	-0.083831
C	 2.1429760768	-0.1644483745	 0.4430619085	-0.271522
C	 0.8671636928	-0.6693459846	 1.1833210777	 0.350957
C	 0.6440823982	-0.7414884376	 2.6672297448	-0.229937
O	 1.6567212865	-1.5692894588	 3.2250903299	-0.421436
C	 0.8849560573	-1.8728727317	 0.1757774332	 0.034465
C	-0.3181127582	-2.7797270808	-0.0416197818	-0.453729
H	 0.8269351341	 2.1648016494	 0.3376339212	 0.117622
H	-0.5351487056	 2.0069182155	-0.771846697	 0.115617
H	-0.8071166947	 1.9477565919	 0.968358564	 0.112423
H	-0.9800950212	-0.3017531756	-0.032979088	 0.057763
H	 1.3139264239	-0.5371256946	-1.7544413636	 0.059975
H	 3.0366096941	-0.7819656486	 0.5587120841	 0.096094
H	 2.389791667	 0.8941005925	 0.5285370346	 0.085264
H	 0.6749854669	 0.273616645	 3.0971500483	 0.085505
H	-0.3611073471	-1.1494586046	 2.868179194	 0.083619
H	 1.5168386306	-1.614944455	 4.1754045348	 0.28729
H	 1.781928217	-2.4901905468	 0.2914265729	 0.069125
H	-1.2621466826	-2.2468128527	-0.1790745928	 0.115776
H	-0.1640649251	-3.4051798701	-0.9281457741	 0.115581
H	-0.4409029603	-3.4547408502	 0.8129319697	 0.119522
