19
gdb 88649	4.53684	0.88112	0.79585	3.6807	77.76	-0.2324	0.035	0.2674	1436.5864	0.158888	-419.192706	-419.183761	-419.182817	-419.227181	32.928	
C	-0.3464911208	 1.4063290372	-0.0850814801	-0.315341
N	 0.0059113275	-0.00224576	 0.0320334533	-0.079465
C	 1.3686522921	-0.3989106373	-0.2885972111	-0.265463
C	 0.8665144543	-0.4673538827	 1.117517901	 0.009378
C	 1.426580482	 0.442326621	 2.1847548966	 0.028324
C	 0.6016628012	 0.5740955493	 3.5048661956	-0.409568
C	 1.818781851	-0.0802429151	 4.2047423719	 0.428998
O	 2.1158525182	-0.3875898818	 5.3263252415	-0.354455
N	 2.4802291027	-0.1785490893	 3.0024433184	-0.324045
H	 0.4832776351	 2.1083846387	 0.0912409388	 0.102237
H	-0.7210312304	 1.5840571757	-1.0980101216	 0.128863
H	-1.1522941246	 1.6401098715	 0.6178884036	 0.128314
H	 1.4831382473	-1.3000598521	-0.8855394095	 0.119883
H	 2.0874149712	 0.3898905994	-0.5151254107	 0.104264
H	 0.5743168188	-1.441661233	 1.5107286215	 0.09471
H	 1.7332631433	 1.4060967696	 1.7677766523	 0.085169
H	 0.3876536333	 1.5929466397	 3.8313488488	 0.132407
H	-0.3104336147	-0.0248384148	 3.539834076	 0.136053
H	 3.3979108926	-0.5280364463	 2.7673062436	 0.249737
