19
gdb 58067	1.81635	1.45903	1.25863	1.0355	83.03	-0.2668	0.011	0.2778	1177.6793	0.153791	-385.817241	-385.806469	-385.805525	-385.852187	40.111	
C	 0.0310208035	 1.5348718721	-0.112021946	-0.41071
C	 0.0156533676	 0.0105710735	 0.0503752233	 0.028273
C	 0.811247083	-0.433966277	 1.2814849094	-0.410296
C	-1.4466802327	-0.5379828739	 0.0670972342	-0.008939
O	-2.0364531562	-0.0971928237	-1.1605612119	-0.43947
C	-1.4502686787	-2.0123515395	 0.1148624272	 0.318279
C	-1.4724720597	-3.2138381325	 0.1116713461	-0.4526
C	-2.2111608538	-0.0171803442	 1.2164945704	 0.350151
C	-2.8579393025	 0.4137912543	 2.1331315892	-0.494956
H	 1.0634965383	 1.8866566539	-0.2012486781	 0.108017
H	-0.5190932286	 1.8444788689	-1.0019393858	 0.135704
H	-0.4177467729	 2.0251841439	 0.7579426941	 0.12272
H	 0.4593046207	-0.4428716338	-0.8439287414	 0.094688
H	 0.3816466983	-0.0144839205	 2.1970444224	 0.126031
H	 0.8294073485	-1.5223523111	 1.380398592	 0.127583
H	 1.8441758819	-0.0818086628	 1.2033087823	 0.113973
H	-2.9415784507	-0.4277768104	-1.1824989168	 0.287842
H	-1.4919120572	-4.2759185112	 0.115234442	 0.200433
H	-3.4281670388	 0.791452674	 2.9459998173	 0.203277
