15
gdb 78799	2.24156	1.88057	1.61755	2.5689	64.47	-0.2438	0.0029	0.2467	902.3955	0.111711	-457.72662	-457.719056	-457.718112	-457.758368	29.437	
O	-0.0998229451	 1.4789439854	-0.084654577	-0.437274
C	-0.0294671762	 0.0787398764	-0.0514488403	 0.086106
C	-1.3572575287	-0.6731323117	-0.122373498	-0.093452
C	-1.7845306163	-0.7715527143	-1.5885195367	-0.194944
C	-0.7716451832	-1.7597672885	-0.9594945229	-0.175551
C	 0.3671896379	-0.6733277967	-1.3385391077	 0.2333
O	 1.6775465656	-0.8341115557	-1.6934939499	-0.47576
C	-0.6514493941	-0.2383999988	-2.3956597482	 0.38874
O	-0.4741831455	 0.061938894	-3.5468253471	-0.365191
H	 0.797656147	 1.8278914693	-0.0928138112	 0.29353
H	 0.5586957091	-0.2919699346	 0.8001662028	 0.084959
H	-2.1006937786	-0.7626377059	 0.657747904	 0.109751
H	-2.8035057821	-0.9716806639	-1.8859792987	 0.120407
H	-0.8024484006	-2.8370468725	-0.9403757476	 0.124588
H	 1.7173131909	-0.7684804524	-2.6591562216	 0.300792
