18
gdb 60731	2.53697	1.11474	0.95768	3.2142	75.33	-0.2481	-0.039	0.2091	1304.9699	0.144926	-439.091919	-439.082105	-439.08116	-439.129542	33.505	
C	 0.1473320097	 1.6491437175	 0.7167064938	-0.405434
C	-0.1620632946	 0.3589755679	-0.0620556747	-0.159253
C	 0.6142374561	-0.8000907755	 0.5633395664	 0.170469
O	 1.4848201823	-1.4136941982	 0.0080934541	-0.242346
C	-1.650445891	 0.0158730481	 0.0276068374	 0.350962
O	-2.3059707519	 0.2084573644	 1.0281486109	-0.342192
N	-2.1429009802	-0.6681475391	-1.0774441047	-0.071135
C	-2.3419525415	-0.1142779092	-2.4054678278	-0.231809
C	-3.4998805593	-0.5369903127	-1.5476979482	-0.220925
H	 1.2206110336	 1.8572955795	 0.7064507672	 0.128106
H	-0.3734507863	 2.5006932555	 0.2703150746	 0.127609
H	-0.1914512506	 1.5570113232	 1.7509093941	 0.150281
H	 0.1571867271	 0.4276370953	-1.1045465491	 0.10071
H	 0.3148844478	-1.0209133505	 1.612139755	 0.097062
H	-2.1811973558	 0.9528169791	-2.5394242336	 0.13376
H	-2.0184394086	-0.7370017725	-3.2345098667	 0.137137
H	-4.0179649523	-1.4659246395	-1.7662933764	 0.134662
H	-4.1061594445	 0.2375236667	-1.0860841123	 0.142336
