21
gdb 83597	2.14963	1.62273	1.23222	2.7177	82.77	-0.2297	-0.0151	0.2146	1144.1671	0.181309	-387.096697	-387.087389	-387.086445	-387.130974	34.785	
C	-0.8213185848	 1.1841026695	-0.5041244188	-0.405047
C	-0.0659214036	-0.136695937	-0.3568276159	-0.110358
C	 0.9090007794	-0.5340883353	-1.5097921001	-0.08647
C	 1.0790007081	-2.0560571012	-1.7156154352	-0.226595
C	 2.1604810084	-2.0924830857	-0.597831819	-0.278632
C	 2.1319243099	-0.5253494985	-0.4942117793	 0.224284
C	 3.4405324079	 0.2169928869	-0.6525489575	-0.493397
C	 1.1562084147	-0.0521308661	 0.5837083986	 0.363299
O	 1.3015228067	 0.3645316115	 1.6992455576	-0.319467
H	-0.1488746737	 1.9946597007	-0.8047935531	 0.119159
H	-1.6098234332	 1.1026216375	-1.2587862807	 0.118876
H	-1.2797576604	 1.4686772647	 0.4473315312	 0.135825
H	-0.763758301	-0.9358401643	-0.0794623406	 0.093115
H	 0.8765361355	 0.1117962981	-2.3884545082	 0.069093
H	 0.1835150362	-2.6628833318	-1.5530270148	 0.099132
H	 1.4871535832	-2.3112105107	-2.6967274023	 0.103971
H	 1.8849611268	-2.6210495541	 0.3183749708	 0.111374
H	 3.1326112204	-2.4703588948	-0.9235426869	 0.110836
H	 3.9839312667	-0.1217799828	-1.5412962762	 0.114786
H	 3.2832746896	 1.2970011269	-0.7410631674	 0.120944
H	 4.0811220731	 0.0476287666	 0.2199911878	 0.135272
