17
gdb 15769	4.64767	1.03192	0.93297	2.8252	73.32	-0.2373	0.0306	0.2679	1282.1385	0.140709	-363.80246	-363.79313	-363.792186	-363.838346	31.852	
C	-0.1353807156	 1.425300567	-0.080641785	-0.498576
C	-0.0297909707	-0.0260229822	-0.050149343	 0.052802
C	 0.0682663345	-1.2265206003	-0.0337480827	 0.052065
C	 0.1610741204	-2.688142437	 0.0036216004	-0.061907
O	-1.1336677102	-3.2944920371	 0.0342729848	-0.432301
C	 0.9088411927	-3.2367989597	-1.2083110608	 0.026224
C	 0.6506368907	-4.6160620838	-1.679505257	-0.249364
N	 0.1968644485	-3.4509929934	-2.4689536382	-0.317153
H	 0.8447690354	 1.8919019205	 0.0661085707	 0.155051
H	-0.5304110234	 1.775934283	-1.0400838064	 0.155192
H	-0.7984504866	 1.7935499081	 0.7097506176	 0.150152
H	 0.723247109	-2.9802683431	 0.9062303386	 0.101069
H	-1.722228316	-2.696607665	 0.5041639237	 0.293356
H	 1.9046487291	-2.8134620613	-1.3155513217	 0.097734
H	 1.454569618	-5.1914552534	-2.1296849484	 0.112011
H	-0.0990584712	-5.1962534248	-1.1515908165	 0.127422
H	-0.7969337945	-3.3206698874	-2.2864028762	 0.236224
