20
gdb 59318	2.79233	1.15481	0.88999	4.0492	76.09	-0.2433	0.0345	0.2778	1325.3965	0.169081	-440.311954	-440.301911	-440.300967	-440.346971	36.614	
C	-0.0158356897	 1.5670426027	-0.1354655054	-0.416358
C	 0.0455793673	 0.0602567888	 0.1127918928	 0.131017
O	 0.6660755968	-0.243255442	 1.358929611	-0.426267
C	-1.336417852	-0.5933211574	 0.0509240029	 0.025003
N	-2.0015876067	-0.5571955578	-1.2579424928	-0.344183
C	-2.1729333263	-1.9206706779	-1.3696096888	 0.432477
O	-2.704670933	-2.6071682557	-2.2000048815	-0.363635
C	-1.4336063436	-2.1584468547	-0.0290581759	-0.172689
C	-0.1694243378	-3.0073773511	-0.0803411598	-0.406818
H	 0.9824488	 2.0044197983	-0.0512999155	 0.132384
H	-0.4056119922	 1.788941462	-1.1339876457	 0.119976
H	-0.6688167	 2.0576998705	 0.5981324529	 0.107212
H	 0.6891803967	-0.3998771666	-0.6439200571	 0.096599
H	 0.1855517276	 0.2252854207	 2.0509084892	 0.279692
H	-1.9581354899	-0.1753847323	 0.8575568203	 0.066821
H	-2.4362404512	 0.1990623736	-1.7668615551	 0.246538
H	-2.1233120892	-2.5515971584	 0.7240127562	 0.101678
H	 0.497545475	-2.6970735102	-0.8899823611	 0.123196
H	 0.3836983704	-2.9397735865	 0.8594499345	 0.137208
H	-0.4371565123	-4.052434436	-0.2601424611	 0.130152
