17
gdb 24715	3.89852	1.58803	1.36191	3.6314	77.51	-0.2171	0.0303	0.2474	958.9586	0.139822	-380.858121	-380.851593	-380.850649	-380.889214	26.036	
C	 0.1319567711	 1.5595893227	-0.1350368971	-0.228099
C	 1.6193034189	 1.5057322069	 0.3209709881	-0.220958
C	 1.5227054869	-0.0454423789	 0.497095027	-0.184477
C	-0.0060242865	 0.0251208824	 0.0785157013	-0.010245
N	 0.3578981832	-0.793508126	-1.0997601922	 0.021813
C	 0.2339880188	-1.0925686214	-2.4390069434	-0.18097
C	 1.5345124175	-1.3504919501	-2.8315570359	-0.080562
N	 2.4543971527	-1.1291474661	-1.8161311817	-0.355231
C	 1.6845473517	-0.8020110826	-0.8058223744	 0.340195
H	-0.5092071279	 2.1372605656	 0.5343715633	 0.113687
H	-0.0522625412	 1.8834863924	-1.1610421138	 0.121279
H	 2.3681753819	 1.8385158849	-0.3987709416	 0.126448
H	 1.7884268883	 2.0234455102	 1.2674760697	 0.109747
H	 1.8789689203	-0.4869204885	 1.4263993693	 0.09672
H	-0.8387828618	-0.358293924	 0.6676651209	 0.096359
H	-0.7057083917	-1.186069627	-2.9565985283	 0.12754
H	 1.8584505779	-1.7113988104	-3.7972212214	 0.106752
