21
gdb 58965	2.63478	1.38277	1.1774	2.6898	77.81	-0.2373	0.0601	0.2974	1154.009	0.18166	-424.191686	-424.182561	-424.181616	-424.225566	34.555	
C	 0.0591204023	 1.538933214	 0.0684957313	-0.415134
C	 0.0118413713	 0.008441796	 0.0729543698	 0.005826
O	 0.5559605078	-0.5283329235	 1.2775413367	-0.442439
C	-1.3998499903	-0.5222272749	-0.0373678854	 0.358139
C	-2.358627339	-0.370904895	 1.1828601159	-0.294677
C	-2.6835531081	-1.8969166089	 1.1189920708	-0.228144
C	-1.7764029739	-2.031326175	-0.1216861665	 0.061983
O	-2.4863672363	-1.8218068843	-1.3634135675	-0.29623
C	-2.1125667656	-0.4272537473	-1.3987953414	-0.143202
H	 1.0918171677	 1.8960381715	 0.1556084883	 0.106501
H	-0.3504098611	 1.9436139678	-0.8631081358	 0.122593
H	-0.5144480113	 1.9443962213	 0.9074883158	 0.13006
H	 0.5851913309	-0.3668446744	-0.7924809225	 0.065913
H	 1.4392025495	-0.1649141934	 1.3943897177	 0.282962
H	-1.8312192983	-0.0844041083	 2.0936000972	 0.118101
H	-3.2016164031	 0.3084657087	 1.0299754424	 0.092718
H	-2.3141413744	-2.4493700643	 1.986663847	 0.106399
H	-3.7241546018	-2.1709612076	 0.9333489076	 0.106273
H	-1.0664100271	-2.8602936047	-0.1820611327	 0.074222
H	-2.982407313	 0.2401582854	-1.452345658	 0.096387
H	-1.4485070362	-0.2137362831	-2.2490709607	 0.091748
