19
gdb 62596	3.02862	1.71338	1.67989	1.3249	76.3	-0.2166	0.0729	0.2895	920.9469	0.159675	-385.843682	-385.836333	-385.835388	-385.874799	30.839	
C	 0.0474132084	 1.5202420097	-0.0017497289	-0.436934
C	-0.004496213	-0.0087045047	-0.0137274794	 0.402091
O	-1.3560884934	-0.4679374743	-0.0312426166	-0.479697
C	 0.8428773801	-0.6349045942	-1.1177618938	-0.136022
C	 2.264684778	-0.857627664	-0.6487586436	-0.093759
C	 1.2978350242	-2.0217943115	-0.720172733	-0.087155
C	 1.1916952113	-2.0313538451	 0.8269172206	-0.086893
C	 2.1571824159	-0.8660214173	 0.9022789122	-0.098235
C	 0.6858279212	-0.6493467465	 1.1779589997	-0.093937
H	 1.0789967235	 1.8776547318	 0.0641701534	 0.123457
H	-0.3917458856	 1.933150797	-0.9184493052	 0.099224
H	-0.5170453989	 1.9141981099	 0.8486228313	 0.119618
H	-1.7852708182	-0.0854994138	-0.8036149865	 0.272102
H	 0.6533279461	-0.4093487177	-2.1618651516	 0.074393
H	 3.1486106163	-0.6514135907	-1.2364071259	 0.083467
H	 1.2951430449	-2.8800835888	-1.3771641038	 0.084289
H	 1.0974979821	-2.8968821991	 1.4672597287	 0.085004
H	 2.9513751295	-0.6661003981	 1.6081158412	 0.083578
H	 0.3472977376	-0.4409102627	 2.1857451613	 0.085409
