19
gdb 71998	1.848	1.83214	1.71443	0.874	75.44	-0.2107	0.0659	0.2766	1005.9402	0.15733	-422.967466	-422.95866	-422.957716	-423.000244	33.869	
C	 0.0111303313	 1.4024875479	-0.0533854592	-0.519493
C	 0.0151537191	-0.0863508898	-0.0121402014	 0.348875
O	 0.9614293166	-0.8240851911	-0.7949825266	-0.329806
C	 0.186436161	-2.0112312062	-0.4604179305	 0.019178
C	 0.4821078429	-2.2465563669	 1.0437951758	-0.307948
C	-0.3079048482	-0.9515929768	 1.2361744279	 0.243977
O	-0.8466911544	-0.4266066257	 2.3933059087	-0.458125
C	-1.0651727562	-1.1297252838	-0.074513488	 0.186153
C	-2.515046226	-1.1412686369	-0.4310165082	-0.533202
H	 0.991896303	 1.7979146372	 0.2351969125	 0.128979
H	-0.2225337739	 1.7767846207	-1.0549958997	 0.131508
H	-0.7343470216	 1.7915860193	 0.6463736464	 0.131857
H	 0.2467274441	-2.801366864	-1.205878796	 0.086148
H	-0.0669541131	-3.1063586922	 1.4374162503	 0.105144
H	 1.5377303771	-2.291497892	 1.3316389423	 0.09336
H	-0.1634517259	 0.0780549477	 2.8494744626	 0.288995
H	-3.0394483039	-0.3326302753	 0.0884440443	 0.134089
H	-2.6676868339	-1.0061099016	-1.5074957306	 0.125548
H	-2.994221788	-2.0825852507	-0.1382764807	 0.124763
