15
gdb 28774	3.39667	1.70579	1.14364	2.2844	75.86	-0.188	-0.0143	0.1738	992.9326	0.116178	-416.858418	-416.851728	-416.850784	-416.889374	26.483	
O	 0.089097744	 1.3007862622	 0.2038935997	-0.426165
C	 0.0713084206	-0.0334767675	 0.0516668203	 0.43706
N	 0.0740208994	-0.6937205161	-1.0835674591	-0.384511
C	 0.0507185628	-2.0340738321	-0.7271776505	-0.224432
C	 0.0340071109	-2.1554941625	 0.6379165389	 0.323782
C	 0.0093421517	-3.0259075084	 1.7926928729	-0.215176
C	 0.0084810282	-2.2800790263	 2.9141429225	-0.110534
C	 0.0334150523	-0.7982427071	 2.5816304454	-0.237718
N	 0.0476881775	-0.8474785631	 1.12689006	-0.095332
H	 0.1040617993	 1.6708812823	-0.6880546838	 0.313886
H	 0.0475818642	-2.809538401	-1.4764811887	 0.111358
H	-0.0057893513	-4.1055156484	 1.7439881581	 0.117842
H	-0.007402246	-2.640878645	 3.93283484	 0.110809
H	-0.8478175153	-0.2620327523	 2.9564173206	 0.13956
H	 0.9219277018	-0.2876910846	 2.9746224738	 0.13957
