21
gdb 89062	4.00475	0.69013	0.65122	2.0535	80.	-0.2595	0.0969	0.3565	1780.2511	0.180546	-424.187139	-424.177348	-424.176404	-424.223383	34.922	
C	 0.6642907688	 1.5953766361	-0.2220317703	-0.420301
C	 0.2669327757	 0.1649298747	 0.0382965964	 0.077251
O	 1.3165094186	-0.7826204589	 0.2693990915	-0.26489
C	 0.3880514205	-0.5286414778	 1.3328552948	 0.061015
C	 0.9407181424	 0.0757932446	 2.600772408	-0.225698
C	 1.8288814497	-0.9193747223	 3.3662431351	-0.211844
C	 2.371377232	-0.3319407982	 4.6451488765	 0.094784
C	 3.7370748611	-0.5894000886	 5.116811158	-0.18075
O	 3.3974719587	 0.6570142621	 4.5063843648	-0.236465
H	 1.4391468181	 1.9361932418	 0.4667314096	 0.133836
H	 1.0514842473	 1.696460387	-1.2413665698	 0.129947
H	-0.2048891097	 2.2556806035	-0.1283319766	 0.121002
H	-0.5081713306	-0.2093763027	-0.6351354836	 0.084392
H	-0.3017021733	-1.3601151259	 1.5048984461	 0.081668
H	 1.529553851	 0.9697028212	 2.3802218284	 0.123147
H	 0.0996593691	 0.3899042066	 3.2339919675	 0.097281
H	 1.2579701418	-1.8268362734	 3.6054906714	 0.098213
H	 2.6609227859	-1.2209679501	 2.7214155043	 0.122753
H	 1.6208149313	-0.0746271436	 5.3964537684	 0.087283
H	 3.9643728653	-0.5435327576	 6.181162674	 0.112782
H	 4.3920080164	-1.2331127185	 4.5306526955	 0.114595
