16
gdb 5232	7.37226	1.14474	1.00337	3.4119	67.27	-0.1983	0.0462	0.2445	1145.5952	0.131826	-379.95146	-379.943779	-379.942835	-379.984002	27.698	
C	 0.0037490591	 1.5153780013	 0.1589286482	-0.392147
C	-0.5885153353	 0.2467189835	-0.4235041955	-0.051256
O	-0.4466614217	-0.7939020199	 0.5455680325	-0.270036
C	-0.9318843264	-1.989559252	 0.1632085681	 0.405514
C	-1.5498559115	-2.4836137848	-0.9579414918	-0.224769
N	-1.8307644229	-3.8270876912	-0.778021223	-0.249953
C	-1.3939153651	-4.1290619154	 0.4157869304	 0.006089
N	-0.8329317234	-3.041836598	 1.0398011719	-0.335189
H	-0.0890185342	 2.3344815777	-0.559918816	 0.124537
H	-0.5175029878	 1.7996554971	 1.0771971403	 0.131879
H	 1.0632410862	 1.3766514368	 0.3912255946	 0.131877
H	-1.6534793121	 0.3746354873	-0.6611063221	 0.113046
H	-0.0721858855	-0.0486314623	-1.3471612733	 0.113055
H	-1.8065927751	-1.9677026004	-1.868236157	 0.103806
H	-1.4462538393	-5.0966226765	 0.8913502354	 0.126402
H	-0.4226219149	-2.9938071934	 1.9571931673	 0.267145
