16
gdb 28250	4.7383	1.20988	0.97899	1.6072	72.18	-0.1648	0.0536	0.2185	1147.746	0.126375	-437.902772	-437.895118	-437.894174	-437.93472	29.331	
O	 0.2216250638	 1.3039479284	 0.1979718859	-0.431838
C	 0.0794087026	-0.0321450116	 0.0081896246	 0.405578
C	-0.0621568045	-0.7956356937	-1.1377561553	-0.487133
C	-0.0483949911	-2.1331235977	-0.6561120538	 0.40259
C	 0.113889771	-2.1527254948	 0.6945025613	 0.138122
C	-0.2133273886	-3.5093807514	 1.2310486421	-0.355766
C	-0.1218259573	-4.2921368092	-0.1210500721	-0.080364
O	-0.3175371632	-3.3520621945	-1.2104076485	-0.288827
N	 0.1300952661	-0.8270798849	 1.1219433549	-0.401619
H	 0.2451815686	 1.7308584272	-0.6635342391	 0.308601
H	-0.1598540973	-0.4333354812	-2.1481639415	 0.096039
H	 0.4916309894	-3.9271351506	 1.9586627937	 0.103974
H	-1.2182405197	-3.5695047929	 1.6763528136	 0.106081
H	 0.8782106787	-4.7296491254	-0.2276333679	 0.109611
H	-0.8703256409	-5.0800037936	-0.2244122242	 0.11382
H	 0.4342547423	-0.4827739741	 2.0167038363	 0.261132
