19
gdb 23064	3.41705	1.12987	0.9322	1.262	80.78	-0.2288	0.0073	0.2361	1278.7106	0.15855	-419.13234	-419.123364	-419.12242	-419.166354	33.641	
C	 1.3700683243	 0.4817377211	 0.3861616394	-0.493748
C	-0.0094412092	-0.0082493365	 0.0449224682	 0.272656
N	-1.0253205815	 0.0853219416	 0.8210760328	-0.192898
O	-0.6857442393	 0.6934922367	 2.0397104654	-0.397159
C	-0.2663961273	-0.6618456036	-1.2524823	 0.304392
C	-1.5957738446	-1.2870925635	-1.7011677112	-0.302674
C	-0.7942159289	-2.393768773	-2.4635100617	-0.239071
C	 0.5102823428	-1.7310108954	-2.0045942805	-0.087813
N	 0.5766013999	-0.3362908339	-2.4048870423	-0.359422
H	 2.0302330276	 0.4033176659	-0.4770498122	 0.144498
H	 1.3243273638	 1.5232430938	 0.7173129784	 0.14554
H	 1.7808361303	-0.0938442125	 1.2225634457	 0.138997
H	-1.5323737311	 0.7117907634	 2.4979712653	 0.304984
H	-2.1745115487	-1.6839896941	-0.8672562443	 0.12775
H	-2.2405846579	-0.6311561271	-2.2946129839	 0.097273
H	-0.9478376775	-3.3860708975	-2.0336011035	 0.111849
H	-0.9298032937	-2.4582712867	-3.5485940434	 0.098567
H	 1.4388092629	-2.2272331494	-1.7441574124	 0.099046
H	 0.0309951981	-0.1315732393	-3.2408779699	 0.22723
