19
gdb 93727	2.79366	1.22344	1.10667	2.5846	75.16	-0.2646	0.0289	0.2935	1171.4178	0.1605	-419.226733	-419.217768	-419.216824	-419.260559	34.132	
N	-0.0590421033	 1.5802087839	-0.2293364493	-0.541954
C	-0.0604397349	 0.1419095081	 0.0530912154	 0.140395
C	 0.3929723397	-0.1555705749	 1.5045757698	-0.224987
C	-0.261505773	-1.5069192368	 1.8088077382	-0.243613
C	-1.6832576136	-1.3444863514	 1.2377514513	 0.125102
O	-2.5323870695	-0.6328679404	 2.1353833845	-0.436584
C	-1.5078166319	-0.444343798	-0.0065152739	-0.239874
C	 0.8154168973	-0.5958608049	-0.8894133499	 0.237013
N	 1.509179599	-1.1358654795	-1.6419066694	-0.354516
H	 0.8911925052	 1.9402688547	-0.1860823507	 0.23907
H	-0.3793180604	 1.7467992509	-1.1799810834	 0.240307
H	 1.4792321981	-0.1476834634	 1.6206898457	 0.108118
H	-0.0380708449	 0.6255968223	 2.1368145537	 0.129841
H	 0.2635859968	-2.3132272372	 1.2830449898	 0.119231
H	-0.2690473148	-1.7574695727	 2.8738582138	 0.09441
H	-2.1339932858	-2.3114763409	 0.9783341247	 0.069199
H	-2.6474606391	-1.171943728	 2.924760695	 0.282432
H	-2.2191110976	 0.3817000138	 0.0553543242	 0.137454
H	-1.6847337474	-0.9876881556	-0.9362642596	 0.118955
