17
gdb 106091	3.05863	1.36102	1.20865	2.6389	73.22	-0.2195	0.0003	0.2199	1081.1587	0.136722	-417.939967	-417.932109	-417.931165	-417.97262	29.939	
C	 0.1425194679	 1.4349077718	 0.2110738175	-0.332185
N	-0.0415071331	 0.0046392026	-0.0365352928	-0.415213
C	-1.3675977412	-0.4275672732	-0.0594748558	 0.373014
C	-2.3324686513	-0.8242025923	 0.9968408896	-0.062082
N	-3.4252294101	-0.0172945873	 0.4447796443	-0.303057
C	-2.722715863	-0.0723804917	-0.8685517119	-0.22403
C	-2.6695787012	-1.5635247977	-1.2728051721	 0.434813
O	-2.9226042742	-2.1562912975	-2.2851509184	-0.340661
C	-1.8944834671	-1.8913004112	-0.0326049536	-0.281799
H	 1.2124414305	 1.6570910093	 0.2387907935	 0.124876
H	-0.3311556335	 2.0802197746	-0.5446395958	 0.113599
H	-0.2848072964	 1.6871746276	 1.1856486859	 0.140721
H	 0.4676784629	-0.2989170875	-0.8587125236	 0.235219
H	-2.1764820963	-0.9789768919	 2.0575512668	 0.111873
H	-4.3254789979	-0.5030136304	 0.4244632949	 0.216771
H	-2.9172970772	 0.7156603203	-1.5924647492	 0.093015
H	-1.3388101186	-2.7800358053	 0.2313683608	 0.115127
