22
gdb 112747	2.26193	1.30922	0.99361	1.7205	82.64	-0.2402	0.0692	0.3093	1317.2417	0.193071	-404.314014	-404.304336	-404.303392	-404.348694	36.089	
C	 0.339578346	 1.4788384738	 0.1508707682	-0.382455
C	 0.0433617363	-0.0206833718	 0.0489483045	-0.192492
C	 0.5192054968	-0.6115483199	-1.2675195394	 0.083968
O	 1.957012378	-0.524162448	-1.4328302426	-0.32735
C	 2.08100028	-1.9409841351	-1.7384446711	 0.115977
C	 3.1153925961	-2.6361008196	-0.8781810986	-0.407677
C	 0.5956730332	-2.1303240924	-1.4348070028	 0.242781
C	-0.1166505983	-3.1868270704	-0.6878230686	-0.303892
N	-0.3001881199	-3.0238407717	-2.1474465443	-0.368096
H	 1.4119851286	 1.6615044694	 0.0404711024	 0.13998
H	-0.179262743	 2.0398743756	-0.6343586279	 0.113402
H	 0.0201554963	 1.8807084799	 1.1168182961	 0.111085
H	 0.5294483075	-0.558715173	 0.8709445617	 0.099974
H	-1.0365460592	-0.200669466	 0.1420322558	 0.089911
H	 0.0069768809	-0.117630177	-2.110164706	 0.068781
H	 2.3027478918	-2.0863081763	-2.8050934587	 0.081789
H	 2.8771759233	-2.5279370834	 0.1840090779	 0.117729
H	 3.1604545687	-3.7028081044	-1.123326595	 0.120981
H	 4.1058320101	-2.2056440429	-1.0559261378	 0.127793
H	 0.4001847905	-4.0963381143	-0.3934212943	 0.121798
H	-0.9215935123	-2.8893821133	-0.0199788238	 0.114862
H	-1.1849202514	-2.5599083293	-2.3435167557	 0.231151
