19
gdb 87864	3.0914	1.40468	1.26193	0.9643	74.72	-0.2185	0.0761	0.2946	1067.422	0.159408	-422.991296	-422.983424	-422.98248	-423.023433	31.663	
O	-0.4724876578	 1.1540494078	-0.7057366263	-0.421769
C	-0.306654057	-0.1718805526	-0.2970829843	 0.033879
C	-0.2124448747	-0.5124093407	 1.1799987924	-0.412864
C	-1.4590997384	-0.8308340191	 0.4098082393	 0.410107
C	-2.7991840126	-0.1227901973	 0.5947158485	-0.308186
C	-3.751611347	-1.0189970906	-0.1842532872	-0.074901
C	-3.3350761675	-1.3917996531	-1.5977756631	-0.324639
C	-2.984630167	-2.285768256	-0.4370720671	 0.104252
O	-1.6960982745	-2.1935452393	 0.1247216637	-0.291101
H	 0.3439945105	 1.6306346512	-0.5225409357	 0.289984
H	 0.2555333466	-0.8092052542	-0.9791225818	 0.095319
H	 0.4278655191	-1.3383099608	 1.470092432	 0.123944
H	-0.268146018	 0.307290201	 1.8895804217	 0.115943
H	-3.0901502105	-0.1014249533	 1.6510699385	 0.103366
H	-2.7487232532	 0.9051602949	 0.2287702652	 0.129286
H	-4.8017189382	-1.0250459258	 0.0817280304	 0.088016
H	-4.1146458084	-1.7383794249	-2.267936133	 0.109333
H	-2.5484047416	-0.8196605727	-2.0778719557	 0.132132
H	-3.3934089699	-3.2845285245	-0.3461109174	 0.097897
