17
gdb 75168	3.13794	1.37242	0.96622	4.8998	78.62	-0.2464	-0.0356	0.2108	1182.8212	0.136772	-418.066519	-418.058087	-418.057143	-418.099716	30.782	
C	-0.0190220291	 1.5057365321	 0.0349485377	-0.483308
C	-0.0073288466	 0.0154009227	-0.0093672212	 0.298167
C	-0.0289738112	-0.8077055432	-1.0633996957	-0.212527
C	-0.0044937452	-2.248560894	-0.6424096343	-0.234088
N	 0.0346759955	-2.1465284767	 0.8174251143	-0.13123
C	 0.0667923411	-3.2368067951	 1.6417336726	 0.159493
O	 0.0995848288	-3.2037052759	 2.8531979206	-0.316163
C	 0.0338729325	-0.7823865407	 1.2360308898	 0.317141
N	 0.0615834501	-0.3041936533	 2.4104417898	-0.541396
H	 0.8712084324	 1.8785373629	 0.5518506295	 0.150357
H	-0.057040246	 1.9372762665	-0.9679080177	 0.119279
H	-0.8780444843	 1.8628271189	 0.6120737733	 0.150609
H	-0.0602818829	-0.5174427411	-2.1054618601	 0.116583
H	-0.8942184987	-2.7972216686	-0.9810305975	 0.134916
H	 0.8750076034	-2.7813378203	-1.0296278234	 0.134912
H	 0.059558924	-4.1857752464	 1.0699880547	 0.085375
H	 0.0871394462	-1.0522815279	 3.1037075577	 0.251879
