19
gdb 85449	2.58889	1.46371	1.11313	4.4206	75.12	-0.26	0.0175	0.2775	1138.189	0.159367	-423.068628	-423.060332	-423.059388	-423.101562	31.998	
C	 0.1547804245	 1.6823189513	-0.0627523405	-0.391871
C	 0.0329515952	 0.1713290336	 0.1030862798	 0.041011
O	 0.636790929	-0.4806104629	-1.0392065785	-0.227682
C	 1.8458658622	-1.0252374946	-0.7301493944	 0.434048
O	 2.5276367343	-1.5740802337	-1.5450732143	-0.336956
C	 2.1327707095	-0.7999415057	 0.7520838388	-0.460015
C	 0.7770374135	-0.413180405	 1.3060301547	 0.353289
C	 0.5463667569	 0.0621969334	 2.7101989702	-0.328041
C	 0.0618235831	-1.3053513791	 2.2880824799	-0.315841
H	 1.2024851497	 1.9981521228	-0.041134051	 0.123598
H	-0.2777798037	 1.9916397622	-1.0177867927	 0.135292
H	-0.3759880802	 2.1997180039	 0.7417530033	 0.121564
H	-1.0217463027	-0.1211338811	 0.1019839829	 0.097053
H	 2.5697663246	-1.6975866147	 1.1927112474	 0.139389
H	 2.8745370392	 0.0038802949	 0.837394618	 0.137692
H	 1.4024961524	 0.1232084979	 3.3738984735	 0.120436
H	-0.1971547997	 0.8345799197	 2.8786119057	 0.117733
H	-1.0067658726	-1.4494478119	 2.1642585826	 0.119078
H	 0.5889924647	-2.1763087511	 2.6633550546	 0.120224
