19
gdb 39585	3.36725	1.54139	1.10998	1.2353	81.63	-0.2321	0.0155	0.2477	1087.1453	0.161993	-385.893095	-385.886067	-385.885122	-385.924278	28.949	
C	-0.0098854226	 1.6478608412	 0.1359540574	-0.315009
C	 1.4867029772	 1.8929654733	-0.0207404998	-0.055633
C	 2.2069330119	 0.8098254484	 0.285609611	-0.150224
C	 1.2788407778	-0.2693995683	 0.779758	 0.138735
O	 1.6013280814	-1.6184749679	 0.5146671583	-0.278454
C	 0.6431288722	-2.4739384361	 1.1331576123	-0.130835
C	-0.7808286985	-1.9574621172	 1.1339453709	-0.064596
C	-1.1288267818	-0.7538637841	 0.6739396888	-0.133843
C	-0.041898433	 0.1068279879	 0.0977402518	 0.009857
H	-0.3688520963	 2.0401772573	 1.0992022992	 0.109504
H	-0.6126405491	 2.1205864416	-0.6462154003	 0.103556
H	 1.8939005218	 2.8559760925	-0.3076466691	 0.095906
H	 3.2870617729	 0.7314522573	 0.2989571234	 0.101829
H	 1.164301006	-0.1500404274	 1.8756804973	 0.070595
H	 0.6971907723	-3.4291845244	 0.5967994593	 0.118702
H	 0.9429014353	-2.6824138094	 2.1771184049	 0.099714
H	-1.5173438395	-2.6377901079	 1.5547216079	 0.091876
H	-2.1639719801	-0.4233627058	 0.6801707752	 0.087287
H	 0.0939218122	-0.1661928209	-0.9589322085	 0.101034
