16
gdb 49031	2.789	1.37636	1.11637	3.6839	77.59	-0.2425	-0.0492	0.1933	1103.8502	0.122483	-400.672503	-400.664196	-400.663251	-400.705474	30.918	
O	-0.3363961455	 0.4556295756	-0.7762318382	-0.250461
C	 0.0267289957	 1.1384683727	 0.149564037	 0.073561
C	 1.3052832025	 1.8923370282	 0.1729354618	 0.22326
C	 1.7487176859	 2.9227146163	 1.2067680254	-0.327756
C	 2.2456359705	 3.7769913975	 0.0141512492	-0.15387
N	 1.7305712279	 2.7859061237	-1.004723765	-0.165584
C	 2.419327579	 1.505803213	-0.7546998263	-0.257047
C	 3.7830878303	 1.4087198353	-0.3196783069	 0.357926
C	 4.9307207215	 1.3167464878	 0.0286320947	-0.428771
H	-0.5903196297	 1.2472330921	 1.0695173761	 0.080676
H	 0.9066139451	 3.3766812948	 1.7335433124	 0.119276
H	 2.4914239138	 2.5868449353	 1.9339349595	 0.123353
H	 1.7145638494	 4.7208265856	-0.1116398422	 0.122075
H	 3.3223116793	 3.9456844317	-0.0557637657	 0.129647
H	 2.1092449751	 0.7668771357	-1.4895758428	 0.147097
H	 5.9460092593	 1.2265628347	 0.3278715008	 0.206618
