24
gdb 60465	4.88895	0.56121	0.52569	1.3215	87.6	-0.2265	0.0725	0.299	2161.4432	0.215625	-405.519598	-405.508793	-405.507849	-405.556529	39.163	
C	-0.132655736	 1.4855411641	 0.1258034758	-0.40187
C	-0.0786185871	-0.0370345942	-0.0048542578	 0.130082
O	-1.3760657673	-0.5753056204	-0.2596608349	-0.433457
C	 0.8171883388	-0.4908310343	-1.1572151943	-0.167278
C	 0.9607695695	-2.0125104164	-1.2529660788	-0.182038
C	 1.8094228321	-2.450917828	-2.445601244	-0.145201
N	 1.971693988	-3.9013054631	-2.4697025428	-0.059011
C	 0.9356221515	-4.6513462867	-3.1717575292	-0.217818
C	 2.2939821079	-4.4944108382	-3.761385019	-0.221397
H	 0.8592761411	 1.900039324	 0.3339434989	 0.114057
H	-0.5125651193	 1.9346122865	-0.797494008	 0.122713
H	-0.7951779411	 1.7841486931	 0.946722752	 0.101594
H	 0.3210590878	-0.4600455252	 0.9331425734	 0.062243
H	-1.9504212297	-0.3251031648	 0.4704636277	 0.280102
H	 0.3953518814	-0.0941699243	-2.0905312492	 0.098476
H	 1.8042462451	-0.0272589283	-1.0335690965	 0.089898
H	 1.4167225137	-2.4057931479	-0.3360168961	 0.099509
H	-0.0350696788	-2.4614522118	-1.3257037388	 0.118189
H	 1.3565226321	-2.0742791429	-3.3830330891	 0.073952
H	 2.8111458337	-2.0066923996	-2.3778717603	 0.096022
H	 0.6338072021	-5.5896896067	-2.7152071397	 0.114032
H	 0.1259988429	-4.0897477874	-3.636448643	 0.108577
H	 2.387058119	-3.8298725826	-4.6195713547	 0.105391
H	 3.0050932727	-5.315643675	-3.7430996116	 0.113232
