19
gdb 96940	3.43888	1.15162	1.0548	2.8966	78.92	-0.2326	0.0235	0.256	1235.5888	0.159067	-419.170438	-419.161618	-419.160674	-419.204304	32.465	
C	-0.27926163	 1.3957088623	-0.2556975046	-0.339188
N	-0.1717418758	-0.0557370794	-0.3045273789	-0.338012
C	-1.1450370708	-0.7550042397	 0.0394381589	 0.517535
O	-2.4048625204	-0.3833867099	 0.5329649968	-0.287625
C	-2.7693351949	-1.771645102	 0.7756552085	 0.086615
C	-3.5168433061	-2.4519415726	-0.3955217483	 0.02364
C	-4.5343481013	-1.6526370522	-1.1877097189	-0.386544
N	-2.2061929697	-2.6831833406	-1.0849929882	-0.331936
C	-1.4489299172	-2.2372989766	 0.1194281347	-0.189394
H	 0.5776988552	 1.7976327943	 0.294939278	 0.125977
H	-0.2189201393	 1.7925276376	-1.2754139974	 0.130632
H	-1.2030964733	 1.7608928811	 0.207781031	 0.125976
H	-3.0932071783	-1.9264498743	 1.8037683046	 0.094404
H	-3.9620769708	-3.387899392	-0.0286150055	 0.073814
H	-4.1158682597	-0.6856577171	-1.4751200948	 0.138298
H	-4.8173011187	-2.1911593621	-2.0974717351	 0.119143
H	-5.4405336026	-1.4824733722	-0.5961534387	 0.11383
H	-2.0361983647	-3.6520457212	-1.3261765605	 0.225404
H	-0.7065270314	-2.9131336235	 0.5415338481	 0.097429
