10
gdb 3778	8.46181	2.12971	1.71958	1.6238	47.01	-0.2754	-0.0691	0.2063	666.1611	0.065178	-392.552088	-392.545902	-392.544958	-392.582691	20.498	
C	 0.0336981118	 1.463486974	 0.0860144096	-0.336145
N	-0.0550619919	 0.0387380627	 0.3643869454	-0.338253
C	-1.0991664791	-0.5870266747	 0.1256482875	 0.580456
O	-2.3035056007	-0.1557654169	-0.4008049702	-0.233851
N	-3.1416054601	-1.2683667441	-0.4595340068	 0.061948
N	-2.5507702589	-2.2630297427	-0.0307438467	 0.072034
O	-1.2636349468	-1.9344700374	 0.3599858911	-0.225112
H	 0.8602027555	 1.6367346968	-0.6103063038	 0.143716
H	-0.8796094126	 1.8980118309	-0.3365081153	 0.13149
H	 0.2770397329	 1.9904285515	 1.0139690393	 0.143716
