13
gdb 3590	4.92884	3.38789	2.6361	3.2259	51.8	-0.2621	0.0581	0.3201	542.4604	0.102953	-344.412416	-344.407377	-344.406433	-344.440964	20.005	
C	-0.0091517791	 1.5158416247	 0.0956931688	-0.276826
C	 1.4323171601	 1.9875590106	-0.0898612471	 0.039727
O	 2.3647336119	 1.4837052526	 0.8667996939	-0.229753
C	 2.293436074	 0.8305873214	-0.4003715145	 0.010341
C	 1.4209090708	-0.4143594473	-0.4011147168	 0.010341
O	 0.8305972478	-0.7052365752	 0.8654912421	-0.229753
C	 0.039376154	 0.0000747494	-0.0910513062	 0.039727
H	-0.4119255108	 1.7975428535	 1.0734903214	 0.132327
H	-0.6468228895	 1.9632199278	-0.6753145015	 0.109066
H	 1.6334275435	 2.9962646137	-0.4445730957	 0.098735
H	 3.1835893497	 0.8800043773	-1.020803966	 0.098666
H	 1.6785334313	-1.2674583536	-1.0220840909	 0.098667
H	-0.8399763836	-0.5328562449	-0.4466866974	 0.098735
