16
gdb 39004	3.02377	2.23533	1.60101	3.3323	73.37	-0.2235	-0.0133	0.2102	834.9842	0.127016	-400.689319	-400.683261	-400.682316	-400.719355	25.453	
C	-0.0160910239	 1.5300157244	 0.0014638004	-0.263994
C	 1.4578895918	 1.9504473407	 0.0531336355	-0.122079
C	 2.2826905076	 0.9133367598	-0.1460583816	 0.120386
C	 3.4616705461	 0.4016557331	 0.7151793945	-0.219925
N	 2.6616995722	-0.3939792801	 1.7432700699	-0.300804
C	 1.6120181889	-0.6784468696	 1.081613295	 0.406346
O	 0.2665425759	-0.6330710874	 1.3841084345	-0.290485
C	 0.0270347301	-0.0190745744	 0.0200394269	 0.076115
C	 1.4701138752	-0.3418156589	-0.3651347386	-0.21464
H	-0.5602056248	 1.9314131302	 0.8635570806	 0.13543
H	-0.5540116709	 1.8668417744	-0.8953836473	 0.118608
H	 1.7543390616	 2.910263373	 0.4620528041	 0.103392
H	 4.1834986907	-0.2092592664	 0.1621150753	 0.115513
H	 3.9969635431	 1.1883246765	 1.2491731968	 0.12824
H	-0.8118834789	-0.526522543	-0.4517213899	 0.103856
H	 1.7301962754	-1.0494139824	-1.148739486	 0.104041
