13
gdb 5143	6.14356	1.41373	1.15744	1.2681	63.13	-0.2342	0.0155	0.2496	949.0782	0.097919	-357.698499	-357.691634	-357.69069	-357.731445	24.32	
N	-0.5892777174	-0.1718856827	-1.4479147711	-0.309084
C	-0.2604627298	 0.4273375556	-0.5163119164	 0.265453
C	 0.2091435088	 1.2056339542	 0.6275146687	-0.453032
C	 1.5033841877	 1.9203668477	 0.3398733187	 0.379629
N	 2.1369974523	 2.684955902	 1.1982346729	-0.312551
C	 3.2560238827	 3.1296248732	 0.5314725193	-0.087224
C	 3.2916133803	 2.6246468629	-0.7408672961	-0.107512
N	 2.1591682368	 1.8484869127	-0.8521789307	-0.277598
H	-0.5634534342	 1.9304939949	 0.9086548738	 0.184246
H	 0.334351383	 0.5379414814	 1.4876637903	 0.184263
H	 3.9683776145	 3.7860929024	 1.0068340688	 0.114231
H	 3.9879111712	 2.73562083	-1.5547833195	 0.135427
H	 1.8631140241	 1.3225654357	-1.6594620887	 0.283751
