18
gdb 84532	2.43956	1.53724	1.24936	3.3639	78.77	-0.2365	-0.0289	0.2077	1068.6986	0.147432	-401.932298	-401.924248	-401.923304	-401.964861	30.837	
C	-0.559996501	 1.1877744523	-0.3497424011	-0.403985
C	 0.0413270188	-0.2155532243	-0.2687322002	 0.005513
C	 0.9395044169	-0.6459916716	-1.4127898898	-0.094076
C	 2.0809066437	-1.1556182512	-0.9489059149	-0.087792
C	 2.0960409753	-1.0849801271	 0.5424668851	-0.094203
C	 2.1107199241	 0.2918081275	 1.1742261185	-0.099302
C	 2.5892732339	 1.4885389662	 0.4290252027	 0.140538
O	 3.0942954301	 2.4315713757	 0.9936981118	-0.273447
N	 0.8432736231	-0.4598020921	 0.9612963668	-0.121044
H	 0.2023523725	 1.9619914427	-0.4688493499	 0.131453
H	-1.2420518071	 1.2544341093	-1.2029480468	 0.122539
H	-1.1284825053	 1.4040059488	 0.5585469583	 0.138794
H	-0.8026989976	-0.9191062749	-0.1997289402	 0.104107
H	 0.6591849937	-0.543181726	-2.4548119435	 0.108763
H	 2.8944801451	-1.563709241	-1.5352660839	 0.112151
H	 2.4778974486	-1.9197844422	 1.1257735293	 0.108211
H	 2.3570235871	 0.3586948796	 2.2309570693	 0.11523
H	 2.495511088	 1.4622909785	-0.6728177515	 0.086548
