13
gdb 15472	2.91732	2.09825	1.45884	4.3065	58.07	-0.2715	-0.0553	0.2162	838.1395	0.095641	-398.623173	-398.616146	-398.615201	-398.65504	24.936	
O	 0.0096358972	 0.0021583184	-0.0920921118	-0.272626
C	-0.0375524036	 1.191322847	 0.0135581034	 0.387462
C	-1.2594602041	 2.0936560373	 0.1666798983	-0.339728
C	-0.6429558452	 3.4545166235	 0.495231073	-0.100477
O	 0.6454606375	 3.4468696162	-0.1470010599	-0.236674
C	 1.1922639718	 2.1575427028	-0.0082435345	-0.14274
C	 1.9752447315	 2.0079294895	 1.2320285579	 0.283816
N	 2.5629416585	 1.9026177293	 2.2214105252	-0.312166
H	-1.7901774943	 2.1125724667	-0.7916437915	 0.155285
H	-1.9387833013	 1.6961198322	 0.9230553942	 0.153997
H	-1.19146247	 4.305571887	 0.0909009888	 0.135062
H	-0.5236698405	 3.5903067138	 1.5785002638	 0.128665
H	 1.8301686626	 1.9383582962	-0.8693316869	 0.160124
