19
gdb 7955	3.32266	1.68924	1.27839	3.9352	71.43	-0.2348	0.0386	0.2734	998.1862	0.166526	-365.123696	-365.115575	-365.114631	-365.155929	31.044	
C	-0.7774219804	 1.283300166	-0.0119036671	-0.411898
C	 0.069978986	 0.0146270543	-0.0574929939	 0.027202
C	 1.2557270719	 0.0487935227	-1.0376140975	-0.344757
C	 2.2592751065	-0.9530694509	-0.459983368	 0.401402
O	 3.2383591934	-1.4180109349	-1.0004417548	-0.381484
N	 1.8400954734	-1.2240577446	 0.8180477096	-0.298841
C	 0.7260599593	-0.4126448598	 1.2930899995	 0.013989
C	 1.1921619875	 0.736514275	 2.1958251655	-0.389065
H	-0.1786258913	 2.1625066613	 0.2461344804	 0.120799
H	-1.2356097208	 1.4713238052	-0.9879915584	 0.120641
H	-1.5867883304	 1.1994094098	 0.7216177612	 0.115653
H	-0.5753812968	-0.8203122849	-0.3557563793	 0.088438
H	 0.9942047754	-0.2135886226	-2.0644767914	 0.127348
H	 1.7367160454	 1.0345532675	-1.0676075857	 0.123142
H	 2.4407907479	-1.7457198142	 1.4381317555	 0.245063
H	 0.0267300212	-1.0385183478	 1.8610029282	 0.082754
H	 1.8631651933	 1.4176586338	 1.6627737771	 0.123582
H	 0.3426066164	 1.3123759771	 2.5748604784	 0.121565
H	 1.737206882	 0.3411133268	 3.0592683806	 0.114466
