18
gdb 46395	3.59891	1.01128	0.86981	2.7733	73.74	-0.2333	0.0243	0.2576	1348.3772	0.14722	-439.073403	-439.064747	-439.063803	-439.107719	31.545	
O	 0.4486854006	 0.1499047063	-0.5045954492	-0.36206
C	 0.2408961996	 1.3020349446	-0.2302571771	 0.414954
N	-0.8915751074	 2.0781280448	-0.2069229894	-0.331019
C	-0.2623937077	 3.2635930468	 0.3876931347	-0.191482
C	 1.0918823998	 2.5135877912	 0.2744984304	-0.017763
O	 1.737774571	 2.3452031416	 1.5056230518	-0.263146
C	 2.9012453132	 1.5642430514	 1.4089280585	 0.133985
C	 4.193347015	 2.2435797186	 1.0336712433	-0.287801
C	 3.9303922644	 1.8026663605	 2.4613565941	-0.28955
H	-1.8613937192	 1.8409533037	-0.355454513	 0.252983
H	-0.3611154388	 4.1761734463	-0.2066740865	 0.115189
H	-0.5456152351	 3.4521790569	 1.4270684972	 0.127831
H	 1.7711876613	 2.9114570239	-0.4909455124	 0.096337
H	 2.7237972867	 0.5518664144	 1.0556928996	 0.123162
H	 4.9145169541	 1.6958698841	 0.4374309443	 0.118006
H	 4.1515338746	 3.3091197054	 0.8364017999	 0.117423
H	 3.7100668125	 2.5807116338	 3.1832782534	 0.124808
H	 4.4693475455	 0.9501880657	 2.8583657504	 0.118142
