20
gdb 86227	2.54809	1.18095	0.85976	3.301	79.62	-0.2786	0.0288	0.3074	1354.8978	0.171553	-403.184028	-403.17477	-403.173826	-403.218781	34.441	
C	-0.0068126669	 1.5635642115	-0.0236358805	-0.408248
C	 0.0466963926	 0.0367225198	-0.0433311154	 0.038962
C	 0.8862030844	-0.5560457289	-1.1885923524	-0.233765
C	 1.2037062739	-1.9727882294	-0.7193705865	 0.116404
O	 2.2449476292	-2.5404358954	-1.4772454403	-0.434455
C	 1.5714650098	-1.7477925704	 0.7798643969	-0.14777
C	 0.6486097654	-0.5853889041	 1.2544790036	-0.249156
C	 1.4826481519	-2.9674756675	 1.5716843508	 0.23984
N	 1.4032382738	-3.9563183337	 2.1666397361	-0.328866
H	 0.9975221757	 1.9893160669	 0.0842418194	 0.116304
H	-0.4391367817	 1.9574617022	-0.949265607	 0.119197
H	-0.6158633746	 1.9288522045	 0.809855545	 0.118941
H	-0.978198312	-0.3395890413	-0.1518188026	 0.082187
H	 0.3729339736	-0.5418160734	-2.1532641719	 0.108941
H	 1.8314656429	-0.0101434836	-1.3064893772	 0.108757
H	 0.2951237522	-2.5918683581	-0.7706107199	 0.087233
H	 2.3350684335	-3.4666513057	-1.2287597795	 0.295467
H	 2.6175611441	-1.4216942559	 0.7859785391	 0.129588
H	 1.2342785491	 0.1497302653	 1.8132487505	 0.11581
H	-0.1337910871	-0.9452113829	 1.9259168319	 0.12463
