19
gdb 89087	5.79784	0.59506	0.56479	4.937	78.52	-0.2579	0.011	0.2688	1925.9311	0.157865	-419.176824	-419.166887	-419.165943	-419.213253	34.314	
C	-0.0116404618	 1.4777444241	-0.2291809858	-0.39631
C	 0.0249604584	-0.0013650934	 0.0786364211	-0.000192
N	 1.3370559942	-0.6660325018	 0.0637755544	-0.331035
C	 0.5831576866	-0.597454738	 1.3244009191	-0.030132
C	 1.1914413084	 0.2075299973	 2.4391872816	-0.057273
O	 1.9871830301	-0.6750531636	 3.2211062623	-0.241405
C	 2.6372175395	-0.0155837066	 4.2751660248	-0.180962
C	 3.397452842	-0.9920627563	 5.061775153	 0.265219
N	 4.0039478931	-1.7366578465	 5.7023666376	-0.293029
H	 0.8638321294	 1.9926018184	 0.1722252132	 0.126445
H	-0.0212985633	 1.638939023	-1.3123164419	 0.125736
H	-0.9125496406	 1.94220412	 0.186347867	 0.118058
H	-0.8095281032	-0.5574721512	-0.3482935406	 0.086749
H	 1.2768754372	-1.595268881	-0.3421593034	 0.235863
H	 0.1067391134	-1.5098393115	 1.6795395738	 0.095981
H	 1.8106084315	 1.0191390538	 2.0330080031	 0.104685
H	 0.4042789475	 0.6558859906	 3.0689957621	 0.093428
H	 3.333134037	 0.7561789886	 3.9063784382	 0.141433
H	 1.9211934907	 0.4895675441	 4.9454810503	 0.136741
