19
gdb 68669	2.69441	1.90689	1.53975	1.4147	79.75	-0.2298	0.0004	0.2302	950.8121	0.160515	-385.901225	-385.893914	-385.89297	-385.932263	30.547	
C	 0.0317096442	 1.5231359954	-0.0408585433	-0.472536
C	-0.0258612307	 0.0084767588	 0.0263918206	 0.298249
O	 0.5697190133	-0.5413746721	-1.1614891755	-0.279453
C	 0.1128640733	-1.8938062416	-1.1611116459	 0.013866
C	 0.9529755869	-2.6756235404	-0.1196536601	-0.267923
C	 1.1639423188	-1.8454532202	 1.1279325197	-0.06361
C	 0.7133322735	-0.5939068487	 1.2198183256	-0.071057
C	-1.3340973188	-1.7543267916	-0.7067319719	-0.086943
C	-1.4227784687	-0.6289183229	-0.0052519612	-0.111787
H	 1.0705061585	 1.8615044727	-0.0944153542	 0.128917
H	-0.4995877165	 1.8834690732	-0.9253633181	 0.12611
H	-0.4281417266	 1.9628195597	 0.8499793057	 0.113296
H	 0.2375801125	-2.3038806002	-2.1671974905	 0.077776
H	 0.4631143794	-3.6259186002	 0.1362470417	 0.104303
H	 1.924994809	-2.9403698207	-0.5558680194	 0.114894
H	 1.6894214066	-2.3128648324	 1.956836811	 0.089371
H	 0.8349847589	-0.0008967526	 2.1216281836	 0.08365
H	-2.1005593946	-2.5019529848	-0.8655910487	 0.100934
H	-2.273798319	-0.2447593516	 0.542423651	 0.101943
