12
gdb 49130	3.57796	1.2443	0.92323	2.4616	65.37	-0.2676	-0.1261	0.1415	1131.9545	0.077453	-472.700962	-472.693449	-472.692505	-472.733629	26.607	
O	-0.1207200111	-0.0047491419	 0.001036254	-0.225885
C	-0.0183819481	 1.194664712	 0.0079558779	 0.095282
C	 1.2595747326	 1.9382899456	 0.0008625792	 0.103978
C	 1.3879479077	 3.2728595795	 0.0105982606	-0.322251
C	 2.8448578876	 3.6390114002	-0.0012126043	 0.464802
O	 3.3370714352	 4.7386878062	 0.0029717435	-0.329826
N	 3.5165566802	 2.4216598785	-0.0177315354	-0.409059
C	 2.646478904	 1.3253278175	-0.0180390125	 0.39307
O	 2.9705628085	 0.1699660359	-0.031278207	-0.302352
H	-0.9106589228	 1.858924832	 0.0208281656	 0.090319
H	 0.6086631006	 4.0234475929	 0.0246181917	 0.159779
H	 4.5208200056	 2.3324473516	-0.0289041932	 0.282142
