21
gdb 118660	2.89745	0.77887	0.64202	2.3555	82.83	-0.2517	0.0569	0.3086	1793.8896	0.178244	-424.162889	-424.151545	-424.150601	-424.200593	38.595	
C	-0.0382348315	 1.359522737	 0.028052071	-0.228098
O	-0.043608015	-0.0469955858	-0.0164319996	-0.227422
C	 0.6634265534	-0.5632912429	-1.1160732376	-0.059772
C	 0.6622538228	-2.0968007925	-1.0183950379	-0.203135
C	 1.2145596181	-2.7202957614	-2.3096783853	-0.059771
O	 0.9938287324	-4.1076727485	-2.2635349537	-0.227424
C	 1.5318333662	-4.786105003	-3.3728512422	-0.228098
C	 1.4021492058	-2.5565953012	 0.1541487109	 0.368839
C	 2.0412466143	-2.9191876443	 1.1046987907	-0.487818
H	 0.983772292	 1.761546766	 0.1114469692	 0.106477
H	-0.5080115513	 1.8000343851	-0.8661552151	 0.102027
H	-0.6089547183	 1.6593628541	 0.9099959556	 0.130519
H	 0.1857814307	-0.2550863793	-2.0623772361	 0.08422
H	 1.6995692925	-0.1862736012	-1.1279293591	 0.093785
H	-0.3841324165	-2.4146397558	-0.9271425526	 0.125489
H	 0.702140586	-2.2758318968	-3.180596878	 0.084215
H	 2.2901054962	-2.4974849743	-2.4068285507	 0.093787
H	 1.0865353589	-4.441357078	-4.320060988	 0.102028
H	 2.6235383391	-4.6569088412	-3.4404233069	 0.106477
H	 1.3089396747	-5.8478341541	-3.2443993431	 0.130519
H	 2.5894112693	-3.2480966318	 1.9522717486	 0.193156
