21
gdb 38275	3.49746	1.66578	1.60024	0.4045	86.81	-0.2424	0.0917	0.3341	949.1887	0.187319	-349.834784	-349.828727	-349.827783	-349.864675	27.825	
C	-0.0716073363	 1.6427068917	 0.0433314293	-0.221273
C	 1.4848897053	 1.4940653496	 0.1011446582	-0.10219
C	 1.1402329072	 0.2046982543	 0.9662369251	-0.207921
C	-0.063544143	 0.0728978686	-0.0260610319	-0.171289
C	 0.6423735221	-0.0884896967	-1.3863083282	 0.342393
C	 1.4522631914	-0.9866544228	-2.381381871	-0.314438
C	 1.8519579596	 0.5163925708	-2.7014778757	-0.108693
C	 0.3558697597	 0.8372685372	-2.6325970854	-0.247732
C	 1.9674273062	 0.6770734575	-1.1357102692	 0.043232
H	-0.4515766439	 1.9826257181	 1.0101844473	 0.093783
H	-0.5541172157	 2.218315936	-0.7428214801	 0.094512
H	 2.1112315529	 2.2861881871	 0.5118669857	 0.064044
H	 1.8785648607	-0.6005423729	 1.0028691705	 0.090144
H	 0.8145949253	 0.4582983541	 1.9776724777	 0.094973
H	-0.9539176361	-0.5063360403	 0.2167164735	 0.063376
H	 2.2287841831	-1.6259822279	-1.954348879	 0.093311
H	 0.8923985107	-1.5027120068	-3.1676272901	 0.088331
H	 2.5613702076	 0.836448025	-3.4681993336	 0.066602
H	-0.2735868522	 0.3990348596	-3.4127262235	 0.081007
H	 0.0975990741	 1.8816365001	-2.4743855701	 0.092892
H	 2.7979814212	 0.0545031977	-0.7845186496	 0.064935
