17
gdb 32126	3.92101	1.18087	0.91796	2.4312	79.55	-0.2371	-0.0245	0.2127	1264.7499	0.137538	-414.266136	-414.257203	-414.256258	-414.301114	30.887	
C	 0.01320394	 1.4421735512	 0.05504838	-0.315488
N	-0.071415258	-0.0031225179	 0.0094369525	-0.346815
C	-1.2290617537	-0.6937509949	 0.0132854086	 0.466896
N	-2.3845046817	-0.0049406173	-0.0033998576	-0.323179
C	-3.4641509242	-0.7798852488	-0.0143004244	 0.067899
N	-3.4996740962	-2.1088757542	-0.0039918692	-0.305271
C	-2.2836875802	-2.6903263613	 0.0185257058	 0.35483
C	-2.249860475	-4.1908654428	 0.0343913907	-0.457919
N	-1.1266770003	-2.0413481769	 0.0274847569	-0.353697
H	 1.0397925876	 1.7385166493	-0.1693136121	 0.126609
H	-0.656347159	 1.8851262781	-0.6855734317	 0.15469
H	-0.2626511653	 1.8416075037	 1.0385557302	 0.134822
H	 0.7630932328	-0.5616944456	 0.0752468417	 0.257941
H	-4.4242632719	-0.2658037685	-0.03120698	 0.117809
H	-2.758116601	-4.5830948557	-0.8521700044	 0.144286
H	-1.2221902416	-4.5531977903	 0.0609396908	 0.132545
H	-2.7988787424	-4.5659235381	 0.9037693223	 0.144043
