17
gdb 68060	2.0405	1.80671	1.14615	2.9641	75.08	-0.2475	0.0487	0.2962	1080.5673	0.133482	-421.737938	-421.72922	-421.728276	-421.770733	33.98	
O	-0.0711594268	 1.3126190152	 0.0397164864	-0.468075
C	 0.0551849705	-0.0569688926	 0.0170393749	 0.409023
C	 0.6265040045	-0.9619590544	-1.1195849974	-0.368822
C	 0.0836647946	-1.9143336813	-0.0079658706	 0.409024
O	-0.0006113637	-3.287266671	-0.0222600936	-0.468077
C	 0.7588364519	-0.9892238579	 1.0538071479	-0.382403
C	-1.1871518753	-1.0056822032	 0.061304608	-0.256005
C	-2.0350287099	-1.034475925	 1.2335684261	 0.314202
C	-2.7650596836	-1.058563202	 2.1888965219	-0.440761
H	 0.8089684884	 1.7026508142	 0.0725729207	 0.287586
H	 0.0907639422	-0.9573551026	-2.0718296817	 0.100582
H	 1.7116622657	-0.94350936	-1.2539157492	 0.083339
H	 0.8910290582	-3.6508861952	 0.0019232551	 0.28759
H	 1.8530977289	-0.9724804778	 1.0557106566	 0.080937
H	 0.3394798885	-1.0091983537	 2.0599764956	 0.120925
H	-1.7798236153	-1.0023776265	-0.8585194612	 0.099816
H	-3.4077652088	-1.0798334561	 3.0337412804	 0.191118
