18
gdb 100566	2.95265	1.03508	0.85755	3.4674	70.41	-0.2538	-0.014	0.2398	1358.0952	0.146526	-476.210586	-476.201229	-476.200285	-476.24554	33.571	
O	 0.1179032409	 1.47026505	-0.3100156346	-0.420519
C	 0.1848909051	 0.0728268719	-0.1537339878	-0.057131
C	-1.2154168724	-0.4865655903	 0.1719095136	 0.013573
O	-2.1311797765	-0.0209249	-0.794055583	-0.444614
C	-1.2161006594	-2.0116819242	 0.1712426976	 0.347087
O	-1.7708114412	-2.6262313789	-0.7204342678	-0.360492
N	-0.4587273703	-2.6161654433	 1.1543182722	-0.074923
C	-0.7400080926	-2.6005418416	 2.5806384873	-0.233336
C	-0.8115309478	-3.8684240212	 1.7803109148	-0.21936
H	-0.6268199173	 1.6253187707	-0.9058651457	 0.292553
H	 0.5579524455	-0.4235707315	-1.0649473688	 0.091536
H	 0.8839205958	-0.1402400174	 0.6601618233	 0.112578
H	-1.5186955798	-0.1073687668	 1.1573284855	 0.094832
H	-2.3433770444	-0.79998979	-1.3350069849	 0.295916
H	 0.1097596113	-2.4119009296	 3.2299614369	 0.138484
H	-1.677829613	-2.1569048725	 2.9053041727	 0.140881
H	-1.7926168419	-4.2724509872	 1.5473703312	 0.14602
H	-0.012332712	-4.5988769482	 1.8596111374	 0.136915
