21
gdb 58597	2.11859	1.23151	1.04734	3.593	81.83	-0.2589	0.0328	0.2917	1287.3596	0.181759	-383.267285	-383.257372	-383.256428	-383.302459	36.712	
C	-0.1160080996	 1.3795769955	-0.0100386331	-0.390184
C	 0.3417052775	-0.0697205502	-0.260902402	-0.059414
C	-0.5124922515	-1.0449540416	 0.5600002935	-0.413664
C	 0.3814124252	-0.3759426701	-1.7640900269	 0.334101
C	 1.5317898516	 0.2940927986	-2.5239046925	-0.394261
C	 2.843109118	-0.2128086853	-2.1202387189	 0.269429
N	 3.8708868919	-0.6217972872	-1.7853542193	-0.316865
C	-0.1365695139	-1.6460858898	-2.3346686275	-0.279733
N	-0.8565557204	-0.3766759332	-2.5609179936	-0.358485
H	 0.5056074456	 2.1114969529	-0.5336944852	 0.118972
H	-1.1509130757	 1.5290869303	-0.3380564786	 0.116561
H	-0.0683512683	 1.6155018296	 1.0570956661	 0.121375
H	 1.3744468031	-0.1623475287	 0.0994756358	 0.105123
H	-1.5544713201	-1.0688262251	 0.2175194257	 0.10984
H	-0.1174600954	-2.0633475934	 0.5251878744	 0.128326
H	-0.5298124943	-0.7316043131	 1.6078120246	 0.12258
H	 1.3942782567	 0.1249547092	-3.5957415829	 0.161109
H	 1.5147174094	 1.3790307331	-2.3742549495	 0.151176
H	 0.3311942698	-2.0694292605	-3.2197359849	 0.121041
H	-0.5770960675	-2.3795109542	-1.6689410013	 0.120565
H	-1.6665546219	-0.3277081468	-1.946676864	 0.232406
