15
gdb 19034	3.96433	2.31728	1.98055	4.1651	63.64	-0.2477	-0.0093	0.2384	714.7499	0.121008	-362.650794	-362.645054	-362.64411	-362.680522	23.27	
O	-0.0125667266	 0.0093556421	 0.1429564273	-0.303151
C	-0.0634786944	 1.2018541153	 0.0580014163	 0.390208
C	-1.3161479725	 2.0903867526	 0.019770309	-0.323352
C	-0.7423823364	 3.427678195	 0.479782889	-0.064533
C	-0.0405486032	 3.2603272282	 1.8716449297	-0.253845
C	 1.2748070183	 2.9981561697	 1.1255169552	-0.039979
C	 0.6800793189	 3.4430905315	-0.1601355734	-0.054084
N	 1.104093513	 2.0486411036	-0.0168656934	-0.142037
H	-1.7044294378	 2.1402149073	-1.0051837876	 0.130705
H	-2.0949187731	 1.671729991	 0.6611380956	 0.131855
H	-1.3862642041	 4.2962418966	 0.3566571087	 0.084387
H	 0.0168867539	 4.2097588836	 2.4092888313	 0.116373
H	-0.423254292	 2.4861532019	 2.544668715	 0.111826
H	 2.2812185419	 3.0955465396	 1.5140836579	 0.110568
H	 1.069876864	 4.0402337719	-0.9748306005	 0.10506
