22
gdb 119652	3.76423	0.99695	0.9108	2.005	86.53	-0.2246	0.0845	0.309	1397.9911	0.194263	-367.122091	-367.113458	-367.112514	-367.155979	33.225	
C	-0.0426927103	 1.5845200879	 0.0140999141	-0.380026
C	-0.0367293149	 0.0539025576	 0.0157507805	-0.161794
C	 0.7787956939	-0.5424414262	 1.1722910876	-0.33975
C	 0.8002516206	-2.0514241206	 1.1736944449	 0.344378
C	 1.3216802524	-3.0392961128	 0.1284345944	-0.229686
N	 0.826515902	-4.0125999906	 1.1908542807	-0.163107
C	 1.2965807163	-3.0269274871	 2.2940494283	-0.054073
C	-0.0610829257	-3.0998681744	 2.9979902685	-0.261245
C	-0.3590843051	-3.059649648	 1.496729604	-0.037462
H	 0.9737042568	 1.9838822409	-0.0753409827	 0.114687
H	-0.6308698796	 1.9809102596	-0.8194125379	 0.112219
H	-0.471121371	 1.9798146235	 0.9419687254	 0.114161
H	-1.0674858793	-0.3188090318	 0.0725477396	 0.098604
H	 0.3660690078	-0.3126860452	-0.9370231333	 0.100658
H	 1.8118584985	-0.1704948978	 1.1208065697	 0.097061
H	 0.3742150398	-0.1838657499	 2.129162972	 0.095611
H	 0.7850793648	-3.1247720884	-0.8230671787	 0.095899
H	 2.4037933973	-3.090678168	-0.0388617812	 0.093989
H	 2.3056491274	-3.1060681019	 2.70496179	 0.076941
H	-0.2870787272	-4.0408446417	 3.5064109677	 0.107417
H	-0.3641369285	-2.2350435503	 3.5930014159	 0.097825
H	-1.3065145058	-3.1795463546	 0.9668089103	 0.077691
