16
gdb 67546	2.5278	1.77035	1.47567	2.2798	67.99	-0.2326	-0.0372	0.1954	935.1517	0.123216	-437.815536	-437.808017	-437.807073	-437.847278	29.584	
O	-0.0693918959	 1.4011236292	 0.0977451411	-0.472215
C	 0.0185802792	 0.0260935879	-0.0134968004	 0.31456
C	 1.2226278857	-0.6738597606	 0.6667756992	-0.115043
C	 1.2063924619	-2.1458266995	 0.6022665741	-0.255555
N	 1.6207551259	-1.3978108022	-0.6018609148	-0.137935
C	 0.3898102166	-0.8125368247	-1.2862636696	-0.071117
C	-0.9670815217	-1.5582481195	-1.21935488	-0.37378
C	-1.3286137753	-0.7429722287	 0.0491332859	 0.358811
O	-2.2906822728	-0.6788883132	 0.7522422715	-0.28464
H	 0.8188166725	 1.7755009352	 0.0665000074	 0.291106
H	 1.9415625546	-0.116891698	 1.2641444908	 0.101529
H	 2.0400624225	-2.6692785048	 1.0617372975	 0.131534
H	 0.2755684136	-2.7025727123	 0.6254645294	 0.130555
H	 0.661546152	-0.3588145172	-2.2370769015	 0.098354
H	-1.6208765884	-1.2664608593	-2.0488132053	 0.144962
H	-0.9824712904	-2.6477066623	-1.1410631751	 0.138873
