20
gdb 66466	3.4378	1.57491	1.45338	1.5911	81.96	-0.2126	0.0819	0.2944	1006.9502	0.171123	-365.93153	-365.923857	-365.922912	-365.963002	31.397	
C	-0.0111041944	 1.4381548373	-0.0101696775	-0.513689
C	-0.0140399945	-0.0550094614	 0.0132684651	 0.378773
C	 1.0183824711	-1.0723237304	-0.3857194699	-0.173949
C	 0.61950726	-0.9489826693	 1.0813609088	-0.17557
C	-0.3742394332	-2.1417133031	 1.0300992048	 0.324105
C	-0.1284187179	-3.3694864654	 1.8671809018	-0.515579
C	-1.7482715215	-1.4736027157	 0.807797255	-0.229419
N	-1.1890763338	-0.8680295422	-0.4559261806	-0.193831
C	-0.1811314689	-2.0303778024	-0.5286716021	-0.058551
H	 0.9524619753	 1.8281652698	 0.3340953955	 0.118737
H	-0.1939866166	 1.8155783093	-1.0213108977	 0.129307
H	-0.7900879754	 1.8425978041	 0.6469299128	 0.121373
H	 1.9699904335	-0.9755992331	-0.8908593023	 0.089641
H	 1.193336346	-0.5744725265	 1.9195884661	 0.080304
H	-0.2525830035	-3.1510840921	 2.9345993213	 0.118418
H	-0.8258373718	-4.1738541907	 1.608560848	 0.115681
H	 0.8902006623	-3.7472726007	 1.7244613895	 0.120661
H	-2.5367031718	-2.1887035313	 0.5494458896	 0.099127
H	-2.1222873664	-0.7556811881	 1.5456596374	 0.094058
H	-0.3466241384	-2.8229299182	-1.2572284355	 0.070405
