17
gdb 52929	3.37622	0.97666	0.8611	2.8871	85.2	-0.2293	0.0106	0.2399	1396.5041	0.135037	-384.63856	-384.629869	-384.628925	-384.674008	31.284	
C	-0.0171813982	 1.4541277836	 0.0129013356	-0.517983
C	-0.0008147006	-0.0000778909	 0.0162541376	 0.403845
C	 0.0150958469	-1.2053108469	 0.015736606	-0.440512
C	 0.0517192355	-2.6307270904	-0.0095849086	 0.140512
C	 0.5868670963	-3.623396886	 1.0953321148	-0.26119
C	 0.0911563528	-4.5916576276	-0.0292490581	-0.198866
C	-1.1486228545	-3.6457493385	-0.1563115286	-0.261191
C	 0.7705896263	-3.6068100887	-0.9889168767	 0.426785
O	 1.4654847778	-3.5829194435	-1.952863707	-0.316677
H	 0.5788781851	 1.8550784705	-0.8142950865	 0.155022
H	-1.0372268343	 1.8392666144	-0.0948130036	 0.151112
H	 0.3933666438	 1.8578059418	 0.9450610121	 0.151095
H	 1.6550777609	-3.5962893095	 1.3155632894	 0.11993
H	-0.0205303719	-3.6365395781	 2.0030198453	 0.1131
H	 0.1040419174	-5.6777368341	-0.0277206777	 0.101987
H	-1.8179312421	-3.6596879973	 0.7067258008	 0.113101
H	-1.6950806112	-3.6394384588	-1.1005862948	 0.119929
