17
gdb 82389	2.41159	2.03365	1.36566	3.3847	66.52	-0.2501	0.0722	0.3223	947.8414	0.13715	-458.929929	-458.922655	-458.921711	-458.961538	28.71	
O	 0.5212074884	 0.7409993116	-0.8530276983	-0.436556
C	 0.0172437488	-0.2716073203	 0.0052835627	 0.093979
C	 0.7126271568	-0.2135640803	 1.3526279239	 0.001428
O	 0.4946299464	 0.9803391087	 2.1159778855	-0.252771
C	-0.0254181073	-0.2500386191	 2.6243006335	 0.056926
C	-1.5286355549	-0.4120078381	 2.67470865	-0.290132
C	-2.2320273047	-0.234282661	 1.3472704282	 0.056925
O	-2.0371993343	 0.9984198931	 0.6507372896	-0.252771
C	-1.4967212131	-0.1977839902	 0.0740127398	 0.001429
H	 0.2844276244	 1.5785425674	-0.4335628121	 0.300421
H	 0.2863188977	-1.2228740718	-0.4714017912	 0.090677
H	 1.7528678986	-0.5394798404	 1.3337671278	 0.099768
H	 0.5007872199	-0.6137012141	 3.5083425297	 0.093373
H	-1.7528013059	-1.4193553808	 3.0496227024	 0.11446
H	-1.9467563368	 0.2912616348	 3.4058649261	 0.129704
H	-3.2645323236	-0.5868172678	 1.3292386859	 0.093373
H	-2.0020514404	-0.5126603517	-0.8393174534	 0.099768
