17
gdb 98551	3.63152	1.15777	0.96014	1.4918	70.33	-0.2487	0.0017	0.2504	1224.1571	0.134877	-458.948341	-458.939766	-458.938822	-458.98225	30.729	
C	-0.3058287788	 1.3603302822	-0.2519979092	-0.241698
O	-0.2910543565	-0.0658777408	-0.391041837	-0.240084
C	 0.8429437717	-0.5799516061	-0.9156527	 0.360244
O	 1.7929240852	 0.0889763365	-1.2478183843	-0.390889
C	 0.7536078792	-2.0445962503	-1.0361708662	 0.141568
C	 1.9964797809	-2.9033014349	-1.2262588994	-0.337072
C	 0.9689238385	-2.9011276079	-2.2925523276	 0.078972
O	-0.1276157224	-3.7506556675	-1.9839492337	-0.279639
C	-0.4569846866	-2.9442267657	-0.8163488975	-0.142161
H	 0.5135653945	 1.693627285	 0.3896171699	 0.142954
H	-0.2059618741	 1.8437316184	-1.2271331163	 0.141714
H	-1.2681455356	 1.6042116805	 0.1980979555	 0.133571
H	 2.8841087723	-2.3136378889	-1.4286140125	 0.148321
H	 2.130088302	-3.7869992432	-0.6090588254	 0.122104
H	 1.1221252743	-2.6068026179	-3.3243485733	 0.124448
H	-0.485256251	-3.5374760269	 0.1042139825	 0.111212
H	-1.4091188835	-2.4277617324	-0.9636449953	 0.126435
