19
gdb 101452	2.93184	1.09561	0.87847	2.6041	67.57	-0.2515	0.0465	0.298	1321.6998	0.158022	-497.263729	-497.254219	-497.253275	-497.298472	34.746	
O	-0.1788046392	 1.3638434263	 0.0002541594	-0.435992
C	-0.011394912	-0.0518841723	 0.0398964757	-0.116902
C	-1.4153984287	-0.6334547995	 0.0878051127	 0.115287
O	-2.1748672649	-0.1799788773	-1.0339892161	-0.459858
C	-1.4347013375	-2.1532560858	 0.0191425666	 0.091848
O	-0.9629792031	-2.7717363998	 1.2336552615	-0.303151
C	-2.2588835204	-3.3685469085	 1.4901445924	-0.085037
C	-2.8391656782	-2.7917629795	 0.1854783895	 0.071204
O	-3.9164995084	-1.9152441932	 0.3895363986	-0.440336
H	 0.6682785158	 1.7703688809	-0.2016398308	 0.296227
H	 0.5051205218	-0.4131048043	-0.8619154892	 0.094359
H	 0.5542075665	-0.3748388161	 0.9242678301	 0.116725
H	-1.8958296459	-0.3158184437	 1.0237104289	 0.092958
H	-1.9906861112	 0.7653483482	-1.1086764103	 0.29843
H	-0.8698949662	-2.4986526894	-0.8571906505	 0.073881
H	-2.194765211	-4.4599127439	 1.5585292228	 0.103512
H	-2.7330421778	-2.9639121665	 2.3909682172	 0.114317
H	-3.0699196999	-3.5457303759	-0.5780491611	 0.076348
H	-3.8453337797	-1.2244165898	-0.2846508473	 0.29618
