13
gdb 10118	2.79502	1.46087	1.08353	3.9267	56.38	-0.3034	-0.0283	0.2752	1045.3608	0.093374	-435.751655	-435.743202	-435.742258	-435.785855	27.974	
O	 0.0824267374	 1.4039157483	 0.0842549807	-0.400105
C	 0.040495936	 0.0078967089	-0.024019116	-0.069933
C	-1.4003383959	-0.5262587851	-0.0391308099	-0.075599
O	-1.9786664159	-0.124762808	 1.2121907273	-0.199662
C	-3.0620445968	-0.8141560363	 1.6617806246	 0.183569
O	-3.5893184663	-0.5498834631	 2.6942081746	-0.246676
C	-2.1831213782	 0.0110814939	-1.1628851928	 0.300811
N	-2.8063769039	 0.3996604077	-2.0538799842	-0.297906
H	-0.3520261817	 1.6484144309	 0.9098151226	 0.30548
H	 0.5310272585	-0.2619365124	-0.9635123201	 0.140815
H	 0.5635123795	-0.4987666275	 0.8005814321	 0.117199
H	-1.3845970508	-1.6214090413	-0.1154193423	 0.138836
H	-3.3707016619	-1.624532586	 0.9761817836	 0.103171
