19
gdb 104324	3.02909	1.28939	1.20483	1.5994	70.14	-0.2544	0.0576	0.312	1107.2568	0.159077	-460.150488	-460.141948	-460.141004	-460.183443	33.081	
O	-0.136180838	 1.4291342464	 0.1360488131	-0.439001
C	-0.0100760955	 0.0193777312	-0.04737411	-0.146536
C	-1.4295226688	-0.5390654681	-0.0474115027	 0.389874
O	-2.069424916	-0.1904045565	 1.1767751524	-0.497193
C	-2.2726265094	-0.0960760934	-1.2774383563	-0.252243
C	-3.3033311033	-1.2280454524	-1.4979604346	-0.250121
C	-2.5958906938	-2.4615517745	-0.9760641612	 0.052392
O	-1.2339492999	-2.5777459301	-1.4258299852	-0.272829
C	-1.4813181044	-2.0573273658	-0.1148134123	 0.009195
H	 0.733247721	 1.7961308612	 0.3176552259	 0.295368
H	 0.4948842584	-0.2244720512	-0.9915523024	 0.108223
H	 0.5552688733	-0.432738633	 0.780691751	 0.092587
H	-1.823454555	 0.7295171339	 1.3396491078	 0.287104
H	-2.7392502493	 0.8732370502	-1.0949771412	 0.105096
H	-1.6282762818	-0.0003541249	-2.1541652517	 0.109984
H	-4.2069816409	-1.0645459696	-0.9001630827	 0.114451
H	-3.6075371825	-1.3230734648	-2.5446803447	 0.105098
H	-3.1194601718	-3.4047366983	-0.8446456786	 0.094052
H	-1.1155749623	-2.6462209303	 0.7222979533	 0.094498
