19
gdb 77243	2.77828	0.93486	0.85583	5.0509	73.21	-0.2362	-0.0141	0.2221	1411.9815	0.155054	-460.147326	-460.136973	-460.136029	-460.183236	37.053	
C	 0.0241966134	 1.6021170383	-0.1731399414	-0.459211
C	-0.0235390805	 0.1049091145	 0.0165016341	 0.319859
O	-1.2323445777	-0.4970402998	-0.3753743573	-0.456941
C	 1.2268506048	-0.7412763908	-0.144533985	-0.001496
O	 2.4805810109	-0.136699218	-0.2978274351	-0.412114
C	 0.5838885263	-0.5829759446	 1.2177001564	-0.090166
C	 1.2879036292	 0.1612002998	 2.337236083	-0.30709
C	 2.3023569257	-0.7270638815	 3.0316925658	 0.164287
O	 2.3484775669	-0.9180570619	 4.2195903239	-0.243101
H	 1.0057461514	 2.0114393785	 0.0728923841	 0.132549
H	-0.183965211	 1.8556646275	-1.2208504584	 0.104175
H	-0.7318108932	 2.0968177663	 0.4441992014	 0.133737
H	-1.3418721026	-0.3566037351	-1.3231151588	 0.278222
H	 1.1046961735	-1.7040668218	-0.6405548628	 0.093457
H	 2.5760184234	 0.1410466652	-1.2148961616	 0.292118
H	 0.0105717044	-1.4469187888	 1.5415687508	 0.112557
H	 1.8449506448	 1.0122032743	 1.9290017259	 0.130005
H	 0.5796936072	 0.5345897912	 3.0825551511	 0.120798
H	 3.0309284532	-1.2055091033	 2.3392244739	 0.088355
