23
gdb 73462	2.65635	1.72328	1.47434	0.0837	87.81	-0.2475	0.0807	0.3283	1039.9197	0.209892	-351.186619	-351.17899	-351.178046	-351.218155	32.035	
C	 0.0650343104	 1.4908821247	-0.0729913718	-0.472236
C	 0.0338845413	-0.0232750871	-0.0355786637	 0.346893
C	-1.2615715148	-0.6354691496	-0.5646839795	-0.266165
C	-1.2729480517	-2.1889920145	-0.5174131676	-0.214153
C	 0.0445774299	-2.7322605375	 0.0596114873	-0.026149
C	 0.2799775	-2.1104486622	 1.4551748807	-0.228859
C	 0.7461630932	-0.7011994665	 1.1157963112	-0.083063
C	 1.3398966693	-0.7480307599	-0.2838686399	-0.083071
C	 1.2256422962	-2.1850377248	-0.7742332803	-0.22886
H	 1.0116224476	 1.8804145035	 0.3152787684	 0.110007
H	-0.0543301649	 1.8648347182	-1.0972792429	 0.110465
H	-0.7444821761	 1.9192627119	 0.5306861735	 0.110468
H	-2.100235177	-0.2303538241	 0.0149592415	 0.094503
H	-1.4183643407	-0.2842511256	-1.5920713011	 0.094506
H	-2.1104544799	-2.5444916728	 0.0925530028	 0.091269
H	-1.4257976825	-2.598621092	-1.5217515196	 0.091267
H	 0.0213856923	-3.8251559494	 0.0863386177	 0.058493
H	-0.6234989905	-2.1388667681	 2.0759361422	 0.087927
H	 1.0683202364	-2.6450812394	 1.9989993506	 0.090952
H	 1.1830794696	-0.0826432443	 1.8931705215	 0.068462
H	 2.2169671553	-0.1642092517	-0.5440949321	 0.068462
H	 2.1515636529	-2.7305381769	-0.5547800163	 0.090954
H	 1.0426565536	-2.270266972	-1.8520435326	 0.087928
