19
gdb 106423	2.78395	1.34844	1.1506	1.0259	75.78	-0.2526	0.0683	0.3209	1130.2885	0.158877	-422.941989	-422.933728	-422.932784	-422.974907	31.921	
O	 0.0860704497	 1.3875136234	-0.0411348441	-0.411975
C	 0.0012276926	-0.0295969915	-0.1044314045	-0.202109
C	-1.4165169745	-0.532026536	-0.0592889859	 0.19954
C	-2.4778982501	-0.3024970674	 1.0788982765	-0.282633
C	-3.2171737862	-1.1754276622	 0.0154071785	-0.154762
C	-2.577058546	-0.2563367895	-1.0698004436	-0.25502
C	-1.9198152627	-1.9881185425	-0.0648485721	 0.511594
C	-1.4957868267	-3.2430866538	-0.6638327295	-0.318249
O	-1.5051767413	-3.0344302285	 0.7747334239	-0.306776
H	-0.2761953582	 1.6614165307	 0.8076868463	 0.284624
H	 0.4672238879	-0.3124107981	-1.0552124359	 0.112483
H	 0.5845123341	-0.5064869404	 0.6993398643	 0.100394
H	-2.2737403176	-0.7710135879	 2.0439936537	 0.112439
H	-2.8465375796	 0.7213744398	 1.1878496504	 0.090955
H	-4.2414515726	-1.5433079902	 0.0574278113	 0.082754
H	-2.9408619965	 0.7724784492	-1.0933384145	 0.102805
H	-2.4667277389	-0.671676149	-2.0749624253	 0.094453
H	-2.2348410664	-3.9558052299	-1.0267303026	 0.120495
H	-0.5050649171	-3.3407531463	-1.105239377	 0.118987
