16
gdb 127661	2.5684	1.85571	1.08653	2.2141	78.04	-0.2045	-0.0421	0.1623	1058.2125	0.126826	-430.266048	-430.258011	-430.257067	-430.298488	30.594	
C	-0.4497225569	 1.3142895958	-0.0163625506	-0.306345
N	 0.0260526856	-0.0599043776	 0.0032825218	-0.03088
N	 0.2425742517	-0.635632709	-1.204338653	-0.227078
C	 0.6898640308	-1.8528447336	-1.1828956928	 0.061677
N	 0.9271816869	-2.6231301816	-0.0799117857	-0.339754
C	 0.7263400977	-2.0575423935	 1.0753583739	 0.345777
N	 0.9561398934	-2.7655932365	 2.217155916	-0.554727
C	 0.2889351507	-0.6512932919	 1.2234389953	 0.326316
N	 0.1230468764	 0.0296013873	 2.305322558	-0.579333
H	 0.2829582719	 1.9734559459	 0.4585982517	 0.1487
H	-0.6010141468	 1.5884629787	-1.0585353284	 0.144535
H	-1.3816316834	 1.3965778993	 0.5496321121	 0.147582
H	 0.8721055923	-2.3103928469	-2.1482286906	 0.12658
H	 1.1021274981	-3.7546584644	 2.079797474	 0.268654
H	 0.44236418	-2.5089941308	 3.0447712978	 0.261231
H	 0.4080517518	-0.4961357812	 3.1264354603	 0.207062
