15
gdb 20954	7.46422	1.11957	0.98561	3.9034	63.47	-0.2326	-0.0077	0.2249	1144.5238	0.118808	-399.780262	-399.772857	-399.771912	-399.812575	26.45	
C	-0.0854419143	 1.5328681861	 0.0116110065	-0.392035
C	-0.0095006575	 0.0184469332	 0.0038059674	-0.057951
O	-1.3414723805	-0.494538699	 0.0116277845	-0.263684
C	-1.4434410792	-1.8367254014	 0.0061044786	 0.225534
C	-0.5046771957	-2.825880204	-0.0058816228	-0.05778
O	-1.1207015047	-4.028940733	-0.0067832362	-0.169574
N	-2.4912611672	-3.8428976669	 0.004840191	-0.122712
C	-2.6777329902	-2.5472588256	 0.0124123554	-0.058189
H	 0.9223407656	 1.9579608617	 0.005788911	 0.12459
H	-0.6208108247	 1.8963676098	-0.8695871828	 0.135712
H	-0.6070082605	 1.887934767	 0.9044475422	 0.13571
H	 0.5146843334	-0.3492458107	-0.890502446	 0.1083
H	 0.5283756968	-0.3577337476	 0.8863763164	 0.108301
H	 0.5714769994	-2.8430244563	-0.0143769907	 0.145755
H	-3.6789683408	-2.1422634433	 0.0221539655	 0.138022
