18
gdb 41549	3.352	1.92654	1.74403	0.9267	73.25	-0.1959	0.0732	0.2692	851.0777	0.150848	-401.877685	-401.871608	-401.870664	-401.907825	26.022	
C	-0.0179759554	 1.606942526	 0.0965889227	-0.247678
C	 1.4903649072	 1.5958882643	-0.2581156582	-0.160188
N	 1.4313876727	 0.1212691732	-0.4970839787	-0.096057
C	 2.2490655283	-0.7817950343	 0.2777418747	-0.058871
C	 2.2222992722	-0.6901079034	 1.8061070484	 0.074773
O	 1.1201568443	 0.1142233056	 2.2281754072	-0.303329
C	 0.2300989095	-0.6851125217	 1.3777482672	 0.05252
C	 1.3711677122	-1.7000229844	 1.0955645334	-0.165309
C	 0.0433351061	 0.0564387733	 0.0605743444	 0.029129
H	-0.2751955939	 2.0423696028	 1.0615455636	 0.117449
H	-0.657006205	 2.0315277452	-0.6794148128	 0.103101
H	 1.7799643302	 2.1581306483	-1.1517552561	 0.094778
H	 2.1418891473	 1.8780141064	 0.5745232684	 0.109653
H	 3.1464271565	-1.185628424	-0.1814405607	 0.094325
H	 3.0746664489	-0.7805740093	 2.4700747388	 0.104431
H	-0.6634499961	-1.0061623956	 1.9165045621	 0.080482
H	 1.3406503173	-2.7800779891	 1.0853890145	 0.10056
H	-0.6828264923	-0.4566629133	-0.5846269089	 0.070231
