17
gdb 37771	2.58804	2.51563	1.86481	1.4612	74.2	-0.2034	0.0192	0.2226	807.2477	0.139889	-384.673936	-384.668205	-384.667261	-384.703594	25.36	
O	 0.0050207641	 1.4121180912	-0.0929885451	-0.247702
C	 1.3185435689	 1.9107190075	 0.0048331936	 0.074663
C	 2.0233814946	 1.7909824906	 1.3431131593	-0.134352
C	 1.3010627163	 1.3450300183	 2.550083414	-0.066697
C	 0.5493034229	 0.2408408053	 2.5531391707	-0.06687
C	 0.3970491333	-0.5991571975	 1.3496952465	-0.134219
C	 0.0238611613	 0.0076301706	 0.0101724155	 0.074409
C	 1.4329320609	-0.4666588856	 0.2120122939	-0.120039
C	 2.2775699398	 0.7749577159	 0.2084127325	-0.119911
H	 1.4985128707	 2.7662678666	-0.6377718674	 0.099659
H	 2.8149691672	 2.5179816439	 1.4975050971	 0.085008
H	 1.4126186837	 1.9402840572	 3.4504019595	 0.091204
H	 0.0388971778	-0.0780006915	 3.4559827992	 0.091228
H	 0.0115860736	-1.6017613362	 1.508396169	 0.085013
H	-0.7075512016	-0.4764018414	-0.6286193061	 0.099635
H	 1.8258961434	-1.3641981502	-0.2468015048	 0.094483
H	 3.2555206532	 0.7373407552	-0.2527842374	 0.094487
