17
gdb 131169	2.97804	1.30934	0.98029	1.462	76.35	-0.1993	0.0232	0.2226	1193.8781	0.137377	-418.006674	-417.998295	-417.997351	-418.0405	30.967	
O	 0.3298833142	 1.4060368574	-0.0526922855	-0.452001
C	 0.1452113137	 0.0534622157	-0.0047808239	 0.143863
C	-0.0881479041	-0.7336735195	-1.1191020929	 0.323616
N	-0.2113966347	-2.0007733475	-0.6239897143	-0.284573
N	-0.0763636081	-2.083658172	 0.7108428841	-0.227888
C	 0.1431904545	-0.8272854673	 1.0968545899	-0.114531
C	-0.1906867762	-0.3519326839	-2.5358791233	-0.089345
C	 0.3265948667	-1.2449882696	-3.6472056915	-0.272169
C	-1.154229819	-1.0387851868	-3.4844998566	-0.272241
H	 0.473183517	 1.7299548333	 0.8409309489	 0.299349
H	-0.3869194101	-2.8441473126	-1.1419770085	 0.268798
H	 0.2907135888	-0.5986248969	 2.1430275038	 0.101644
H	-0.0579792768	 0.7143008122	-2.6795822504	 0.108836
H	 0.8274772665	-0.7729605228	-4.4849331574	 0.121836
H	 0.7481614253	-2.2044845053	-3.3654398816	 0.111507
H	-1.7491577884	-1.8567627817	-3.0911494205	 0.111463
H	-1.6755856595	-0.4244059327	-4.2099009803	 0.121837
