18
gdb 17003	3.67398	2.1818	1.95566	1.8431	69.86	-0.222	0.0696	0.2916	778.9434	0.156178	-347.761319	-347.754987	-347.754043	-347.791293	26.296	
C	 0.0759075518	 1.4146719659	-0.1674002722	-0.378485
C	 1.416211838	 0.7092337426	-0.0362167967	 0.169654
C	 1.5666749046	 0.1912633751	 1.3983034846	-0.142446
O	 0.2627606001	-0.4635837661	 1.359591378	-0.330033
C	 0.1245154858	-0.0704319165	-0.0170722171	 0.4044
C	 0.0776977562	-1.0274962424	-1.1810587232	-0.293774
C	 1.1264874446	-0.4188726892	-2.1639641631	-0.219269
C	 2.1916666621	 0.2999720367	-1.2724593645	-0.288595
H	-0.2919018533	 2.0045383717	 0.6660647611	 0.118396
H	-0.1660463446	 1.8130058089	-1.1468986108	 0.118301
H	 2.3701779158	-0.5468412315	 1.5107921903	 0.103315
H	 1.6289009829	 0.9279115483	 2.2082810598	 0.10342
H	 0.4054490907	-2.0099561361	-0.8243201096	 0.114968
H	-0.9038637422	-1.1524438542	-1.6488519769	 0.103227
H	 1.5704891692	-1.1759789174	-2.8161235532	 0.103916
H	 0.6388607171	 0.3085786653	-2.8213987975	 0.109007
H	 2.6796971917	 1.121085442	-1.8079202219	 0.101132
H	 2.9783256696	-0.4067330432	-0.9825418471	 0.102867
