18
gdb 78737	4.72484	1.12566	1.03268	3.3535	77.59	-0.2488	-0.0308	0.218	1182.2077	0.14754	-401.90406	-401.896179	-401.895235	-401.936431	30.096	
C	-0.0414740573	 1.4905011835	 0.0225406518	-0.415275
C	 0.0302575414	-0.0331424923	 0.0372440889	 0.005385
C	 0.8408073197	-0.6114895806	-1.1148104001	-0.078377
N	 2.1219788773	-0.5788194816	-0.3639518493	-0.192494
C	 1.1825905887	-0.6085892224	 0.8968194804	-0.010313
C	 1.0712069816	-2.1397546769	 0.7967329402	-0.308004
C	 1.4484548446	-1.916934766	-0.6541602151	 0.235396
C	 2.0626818199	-2.8669925977	-1.5972139105	 0.064901
O	 2.0874793147	-4.061985975	-1.4274529626	-0.261521
H	 0.9473613621	 1.9289638849	-0.1436644985	 0.136488
H	-0.7073962258	 1.8452376808	-0.7709549037	 0.120382
H	-0.4279043369	 1.8675146389	 0.9750729508	 0.120232
H	-0.960912805	-0.4660974263	 0.2173877042	 0.077366
H	 0.798298571	-0.3489503961	-2.1674637842	 0.101087
H	 1.512401726	-0.1110250185	 1.8072143185	 0.090291
H	 1.8758221952	-2.6535888633	 1.3266100544	 0.126964
H	 0.1099451563	-2.6035820144	 1.0354240644	 0.10852
H	 2.5187161665	-2.390504017	-2.4942680596	 0.078972
