13
gdb 21568	3.99467	1.8973	1.28729	4.9204	64.83	-0.2243	-0.0444	0.1799	867.8974	0.098371	-394.824816	-394.818241	-394.817297	-394.855319	25.436	
N	 0.0351126941	 1.39393761	 0.15084398	-0.587768
C	-0.030109526	 0.0233793327	 0.0541937864	 0.354321
C	-1.2032225285	-0.6834363177	 0.0333325478	-0.335105
C	-1.2004156628	-2.1236603523	-0.0088083959	 0.439421
O	-2.1626681624	-2.873143734	-0.0294429311	-0.406315
N	 0.1039117935	-2.663591915	-0.0341460028	-0.263915
N	 1.2635185571	-2.0106945004	-0.0207220802	-0.181221
C	 1.2077277685	-0.7142548887	 0.0239977849	-0.037635
H	 0.8817976696	 1.8404961126	-0.1636632897	 0.260898
H	-0.803560603	 1.9108254459	-0.0618959462	 0.262888
H	-2.1712148705	-0.1962080492	 0.050130773	 0.107067
H	 0.1698976177	-3.6719971209	-0.0679903841	 0.27197
H	 2.1614400428	-0.1962988931	 0.0424109579	 0.115394
