17
gdb 57742	7.60153	0.46495	0.44673	1.6877	119.23	-0.2306	-0.0444	0.1862	2397.996	0.133053	-347.495128	-347.484972	-347.484028	-347.530747	36.242	
C	-0.0160263722	 1.5560455523	 0.0359203185	-0.377332
C	-0.0243359705	 0.013835675	-0.025681554	-0.175869
C	-1.4608103891	-0.5471563938	 0.0383324624	-0.377335
C	 0.6727749726	-0.4663977026	-1.2129697958	 0.325538
C	 1.2494531904	-0.8636351457	-2.2045401955	-0.497363
C	 1.8870000251	-1.3028808184	-3.3121124972	 0.602569
C	 2.4619138682	-1.6989397618	-4.3110506495	-0.037135
C	 3.1001500766	-2.1386624637	-5.4200433767	 0.177589
C	 3.6704744544	-2.5317531202	-6.4120190759	-0.707321
H	 1.0045071243	 1.9462524563	 0.0160606016	 0.130483
H	-0.5595193358	 1.9781468342	-0.8144716528	 0.130291
H	-0.5000272437	 1.8946150546	 0.9571614396	 0.118533
H	 0.5226964259	-0.3609390419	 0.8514334477	 0.117051
H	-2.0507220131	-0.1926247731	-0.8119804867	 0.130291
H	-1.4588964584	-1.6397730301	 0.0201764968	 0.130483
H	-1.9495033274	-0.2154204256	 0.9595826198	 0.118533
H	 4.1716028127	-2.8770134656	-7.2819711724	 0.190993
