16
gdb 18103	4.40796	2.09685	1.52872	1.6985	71.4	-0.2312	0.0149	0.2461	818.9168	0.132706	-346.604908	-346.598709	-346.597765	-346.635129	24.534	
C	-0.0364546012	 1.4875589379	 0.0799024109	-0.110861
O	 1.2938063964	 1.9701139405	-0.142765919	-0.283843
C	 2.0315813723	 0.9260493272	-0.7702027062	 0.061991
C	 3.398118664	 0.5595890902	-0.2323813852	-0.113017
C	 3.5025987238	-0.7662890365	-0.0959902187	-0.058961
C	 2.2082050833	-1.5052561774	-0.4331264184	-0.370927
C	 1.259747467	-0.3405212734	-0.4756112019	 0.292878
C	 0.0709392783	-0.0222158212	 0.0172631884	-0.244864
H	-0.3788615279	 1.8374176882	 1.0626957988	 0.111278
H	-0.7274014342	 1.9014113995	-0.6747437008	 0.098401
H	 2.1091634859	 1.1484866838	-1.8518403719	 0.075811
H	 4.1933046485	 1.2787096381	-0.0767646174	 0.103468
H	 4.4033648515	-1.2961615161	 0.1949190387	 0.098635
H	 2.2970027746	-2.0257647016	-1.3981277829	 0.11985
H	 1.9337471248	-2.2626130169	 0.3089627619	 0.118664
H	-0.686398237	-0.6872280122	 0.4129004339	 0.101499
