18
gdb 55644	2.9711	1.02311	0.93188	4.5079	73.4	-0.2493	0.0114	0.2607	1294.8287	0.147155	-435.314608	-435.304743	-435.303799	-435.349381	36.345	
C	 0.3799167104	 1.2647322343	 0.5721553365	-0.399981
C	-0.0308534216	-0.1308022752	 0.0695202898	 0.044396
N	 0.3580875684	-1.1380508321	 1.0774301953	-0.51803
C	-1.5579407349	-0.2185593184	-0.193868622	-0.287844
C	-2.4906180602	 0.20112792	 0.9552942005	 0.352899
N	-2.1842026993	-0.3117034971	 2.1767771091	-0.50465
O	-3.4607997769	 0.901731346	 0.7426657171	-0.354482
C	 0.6623105414	-0.3970620947	-1.2149269812	 0.268823
N	 1.2183193366	-0.6430256408	-2.1986118046	-0.333104
H	 1.4646891235	 1.3260621756	 0.6986679982	 0.130773
H	 0.0767668044	 2.0328941009	-0.1424177116	 0.150803
H	-0.1005635695	 1.4630780081	 1.5323533129	 0.144473
H	 0.2436243491	-2.0736937841	 0.6958039419	 0.250732
H	 1.3425968027	-1.0362493206	 1.3079051091	 0.248418
H	-1.8166261675	 0.4197189094	-1.0397894263	 0.149689
H	-1.8059010707	-1.2479904834	-0.4803900099	 0.132198
H	-1.2989355063	-0.7820605322	 2.3167064547	 0.268271
H	-2.7531939094	-0.0301054156	 2.9586771504	 0.256615
