19
gdb 92815	2.75226	1.77227	1.5566	1.4377	80.33	-0.2275	-0.0101	0.2174	943.2652	0.160992	-385.821079	-385.813767	-385.812822	-385.852398	30.158	
O	 0.2233046638	 1.4573954761	-0.0760839916	-0.437814
C	 0.0746961775	 0.0480663941	 0.0172186974	 0.115526
C	 0.893118435	-0.5450448558	 1.2229924981	-0.266772
C	 0.1101600225	-0.0972500706	 2.428880702	-0.152806
C	-1.1852225913	-0.4243943046	 2.4301867391	 0.165092
C	-2.3440495611	 0.5597210357	 2.4159956569	-0.289548
C	-2.5985778952	-0.0000678421	 0.9825467298	-0.081213
C	-1.386425116	-0.4346985027	 0.0981631493	-0.040043
C	-1.7877890256	-1.2427812461	 1.2899768861	-0.15611
H	-0.33533581	 1.8502507158	 0.6020625839	 0.282034
H	 0.4999598275	-0.3340747733	-0.9183414899	 0.079241
H	 0.9419551971	-1.6333685876	 1.1125953605	 0.108361
H	 1.9117748235	-0.1520265226	 1.2052408559	 0.105786
H	 0.466953526	 0.7518586508	 3.0070545138	 0.09311
H	-3.2007275151	 0.2846802817	 3.0419563847	 0.110765
H	-2.114500911	 1.6211557696	 2.5617931288	 0.091162
H	-3.57151434	 0.0406169783	 0.5023364236	 0.092353
H	-1.7706213602	-0.7911428108	-0.8557556983	 0.089113
H	-2.0804083975	-2.2851100458	 1.2987765599	 0.091763
