19
gdb 36237	4.17865	1.10341	1.04038	0.9616	83.72	-0.2445	0.0583	0.3028	1202.162	0.159522	-348.667375	-348.659578	-348.658634	-348.70014	31.101	
C	 0.0145576738	-1.1788643922	 0.180705376	-0.457869
C	-0.0315503984	 0.0146432521	 0.0420887523	 0.30742
C	-0.0412380403	 1.4640764837	-0.1183249322	-0.389384
C	 1.3637814013	 2.0790405081	-0.0125853723	 0.037305
C	 1.5450922052	 3.5942355668	 0.0383047204	-0.096092
C	 1.4846960532	 4.029632154	 1.514446537	-0.061308
C	 1.2615650377	 2.7804779035	 2.3633913571	-0.235338
C	 2.1589340629	 2.047779488	 1.3287709843	-0.068298
C	 2.7552001123	 3.4618671959	 0.9297818965	-0.086277
H	 0.0385317753	-2.2334055415	 0.3003617515	 0.192568
H	-0.4658301328	 1.7222501855	-1.0978286201	 0.125688
H	-0.7092469156	 1.9141745986	 0.6248593333	 0.13039
H	 1.9968351944	 1.6629930501	-0.8032077842	 0.081543
H	 1.3870052377	 4.3123329538	-0.7569780384	 0.081922
H	 1.2818199823	 5.0613072274	 1.7726555307	 0.083391
H	 1.7734192778	 2.8695948481	 3.3256762834	 0.09989
H	 0.2449409568	 2.4080710853	 2.5319136583	 0.090339
H	 2.7225409553	 1.1610615268	 1.6085247569	 0.074652
H	 3.7586374714	 3.851817766	 0.8455689794	 0.089458
