21
gdb 99163	4.95987	0.7272	0.67237	3.3837	78.89	-0.2412	-0.0155	0.2256	1715.4784	0.180449	-424.228724	-424.218596	-424.217652	-424.265821	35.011	
C	 0.0841938092	 1.4813720886	 0.2602333338	-0.375326
C	-0.0503339688	-0.0012491943	-0.0780005975	-0.275849
C	 0.7997974371	-0.4382438607	-1.2630152273	 0.377856
O	 1.4245732505	 0.3531462506	-1.9341980983	-0.296901
C	 0.8325464039	-1.9333347953	-1.5643955239	-0.333801
C	 1.5269633883	-2.2597608804	-2.8765666772	-0.00774
C	 3.0564975258	-2.0642453913	-2.9478845684	-0.067495
O	 3.2634034622	-3.4522931061	-3.2934088279	-0.274094
C	 1.859026324	-3.7418124218	-3.1630609332	-0.097441
H	 1.1137931235	 1.7285756824	 0.5321811196	 0.129954
H	-0.1812792436	 2.1010433581	-0.5995144207	 0.134881
H	-0.5672839966	 1.7478349572	 1.0969919144	 0.111223
H	 0.2072838909	-0.6353820281	 0.7812053858	 0.119434
H	-1.0930256434	-0.2583367667	-0.3141821672	 0.123975
H	 1.3421022041	-2.4293098791	-0.7246500106	 0.126638
H	-0.1944324292	-2.3234097542	-1.5488855623	 0.117653
H	 1.0080395408	-1.7689514769	-3.7023544699	 0.090197
H	 3.4218439352	-1.3843934449	-3.7240628615	 0.111383
H	 3.5365197282	-1.8030802165	-1.9954734569	 0.094926
H	 1.6565486809	-4.4317626588	-2.3308860603	 0.090389
H	 1.4370487769	-4.1672661716	-4.0818769208	 0.100138
