22
gdb 110610	4.35596	0.97098	0.90094	1.4309	86.96	-0.2141	0.0743	0.2884	1418.2803	0.193248	-367.136641	-367.127529	-367.126584	-367.170243	35.328	
C	-0.2958063904	 1.4284726862	-0.1498082249	-0.375735
C	 0.2536026972	 0.0154543869	 0.0723528839	-0.209538
C	 0.950223592	-0.526615412	-1.1575218687	 0.01483
C	 0.9378345731	-1.9830078116	-1.4175452622	-0.119566
N	 0.0163656479	-1.0600501155	-2.173550971	-0.155667
C	 0.7516329282	-1.4629308685	-3.4370482239	-0.048387
C	 2.2525510089	-1.3184121082	-3.4663076232	-0.359651
C	 1.6262360741	-2.4650397781	-2.7169731126	 0.336504
C	 1.9044453973	-3.9153303482	-2.9809101459	-0.493962
H	 0.5080887297	 2.1353070275	-0.3843540241	 0.109319
H	-1.0029353075	 1.4336402155	-0.9842202747	 0.135084
H	-0.8128071329	 1.7968164461	 0.7413907772	 0.109929
H	 0.9625989273	 0.0102161695	 0.9102486178	 0.095366
H	-0.5645401305	-0.6614879917	 0.3423977644	 0.105154
H	 1.7898660226	 0.0784241125	-1.4863185936	 0.082249
H	 0.5281923271	-2.6913747159	-0.7013634599	 0.089032
H	 0.1560061559	-1.5550584871	-4.3373403195	 0.098636
H	 2.6730986511	-1.6134671813	-4.4241276581	 0.11137
H	 2.8040066821	-0.5132667824	-2.9940590766	 0.114185
H	 2.7691310827	-4.2677019144	-2.4047744084	 0.120274
H	 1.0468134219	-4.5411920413	-2.7078408679	 0.121553
H	 2.1208028221	-4.087077098	-4.040040318	 0.119021
