18
gdb 32495	1.97312	1.69103	0.97346	2.6356	87.83	-0.2037	0.017	0.2207	1219.8825	0.147689	-364.829455	-364.820479	-364.819535	-364.863293	33.874	
C	 0.0761156212	 1.5382646894	 0.1279311544	-0.36868
C	-0.0439724489	 0.0139081413	-0.0446886034	-0.315365
C	 0.6675042658	-0.5039747861	-1.2596510039	 0.170821
C	 0.102090355	-0.9245850017	-2.4379533401	-0.163832
N	 1.1099362517	-1.3001127438	-3.2968473034	-0.241549
C	 2.320639619	-1.1317907	-2.6934111176	-0.193785
C	 2.0939072739	-0.6360457383	-1.4204593445	 0.08167
C	 3.0799806843	-0.3283702261	-0.4547395939	 0.255497
C	 3.9031011393	-0.0620383154	 0.3851490239	-0.475985
H	 1.1248091334	 1.8352958215	 0.2175671663	 0.13351
H	-0.3506301742	 2.0633336544	-0.7326160465	 0.111075
H	-0.4506526477	 1.8719202024	 1.0280213234	 0.105026
H	 0.3608728781	-0.4764275842	 0.8489535001	 0.111422
H	-1.1022869266	-0.2662629097	-0.099924285	 0.094129
H	-0.9331347334	-0.9904732462	-2.7329454491	 0.121645
H	 0.9750555599	-1.6556821227	-4.226707023	 0.265658
H	 3.2443349728	-1.373101833	-3.1929625765	 0.128706
H	 4.6330894665	 0.1697487581	 1.1198417888	 0.180038
