22
gdb 89719	3.41152	1.03396	0.94665	2.3825	83.94	-0.2122	0.0821	0.2943	1377.5356	0.191136	-404.314116	-404.304127	-404.303183	-404.348645	37.25	
C	-0.0269626906	 1.4945300114	 0.0111698333	-0.319047
N	 0.0664993949	 0.0531553288	 0.0214833096	-0.074009
C	 1.0488749094	-0.5903097752	-0.8799635907	-0.256353
C	 1.4563993132	-1.5007448983	 0.281514375	 0.378918
C	 0.6439479419	-0.6015640614	 1.2171434598	-0.256359
O	 1.3267840197	-2.9105675948	 0.2489192072	-0.324182
C	 2.6346663671	-2.3412146877	 0.504530365	 0.288949
C	 3.6391234298	-2.5438313203	-0.6084542666	-0.457541
C	 3.1529452659	-2.5570553318	 1.9093610727	-0.457549
H	 0.9417261743	 1.9982357241	 0.2009183552	 0.085834
H	-0.4006675219	 1.8361207699	-0.9598219101	 0.121925
H	-0.7359785139	 1.8268040884	 0.7767121573	 0.121925
H	 0.6118970912	-1.0798238096	-1.756854439	 0.114042
H	 1.8623289963	 0.0790983085	-1.2066944057	 0.085405
H	 1.2759566957	 0.0627981145	 1.8301326869	 0.085405
H	-0.0870932699	-1.0992490557	 1.8632089889	 0.114041
H	 3.177668863	-2.3889870856	-1.5862539328	 0.129456
H	 4.4795089168	-1.8487026177	-0.5042073221	 0.11907
H	 4.0425562365	-3.5619410346	-0.5785426256	 0.125776
H	 3.5428288166	-3.5747735583	 2.0209047246	 0.125731
H	 3.968654893	-1.8608161996	 2.1334035171	 0.119081
H	 2.3596428407	-2.413614775	 2.6463152598	 0.129482
