20
gdb 106876	2.85071	1.1551	0.98434	3.3022	81.74	-0.2446	-0.0266	0.2179	1287.7661	0.170052	-403.130842	-403.121695	-403.120751	-403.165021	33.892	
C	 0.0648775273	 1.461393546	-0.2896464395	-0.382184
C	 0.0048512146	 0.0081270096	 0.2037280012	-0.26882
C	-1.4031541245	-0.5177691799	 0.2271059904	 0.291617
C	-2.4976974811	-0.1302369562	 1.2411998492	-0.285958
C	-3.0439628254	-1.5934313839	 1.1976810594	-0.302004
C	-1.9585863594	-1.9526468341	 0.180354669	 0.175021
N	-1.9778627427	-1.0598455392	-0.9842368097	-0.390605
C	-1.2205899226	-3.2225454818	 0.09148823	 0.083973
O	-1.3702130963	-4.1420420192	 0.8623803882	-0.270692
H	 1.0953578191	 1.8280410505	-0.2953666497	 0.118782
H	-0.3294475366	 1.5408124455	-1.3073842726	 0.129339
H	-0.521832078	 2.1264237616	 0.3530518822	 0.118722
H	 0.6098272233	-0.6280825804	-0.4497377414	 0.113912
H	 0.432601378	-0.0612938258	 1.2112245741	 0.104282
H	-2.0970071635	 0.1365417341	 2.2218544024	 0.115218
H	-3.1745085784	 0.665323851	 0.9125099198	 0.102183
H	-2.9138738752	-2.1242757003	 2.1416202303	 0.133615
H	-4.073318181	-1.7330219435	 0.8527880886	 0.102885
H	-2.9190081738	-0.7231531153	-1.1822364219	 0.231538
H	-0.4910497839	-3.2657402985	-0.7459674201	 0.079176
