17
gdb 61778	2.89135	0.91817	0.8661	4.0872	70.66	-0.2648	-0.0058	0.2591	1377.0394	0.134282	-455.177982	-455.168004	-455.16706	-455.214105	34.699	
C	 0.0187061015	 1.7906384239	-0.0844051796	-0.421812
C	-0.0460173145	 0.2630663988	 0.0228422182	 0.026881
N	-1.4156679514	-0.2206153006	 0.0547713702	-0.28699
C	-1.9950174186	-0.7349010055	 1.1749948564	 0.153517
O	-1.4571843445	-0.8262720284	 2.2573101788	-0.318764
C	 0.6708956037	-0.4569908285	-1.1475590912	-0.0259
O	 0.0256647479	-0.2218097917	-2.3910505279	-0.423656
C	 2.1004656143	-0.1055578195	-1.2080795098	 0.262509
N	 3.2126935589	 0.2025450747	-1.2656754378	-0.313998
H	 1.054810025	 2.1410219039	-0.1007123827	 0.14925
H	-0.4862335765	 2.1485599592	-0.9885746852	 0.111521
H	-0.483569661	 2.2396512104	 0.7750784472	 0.148248
H	 0.4128470612	-0.0593643624	 0.961429573	 0.14391
H	-1.9316945824	-0.2104520107	-0.8120362618	 0.256259
H	-3.0348490184	-1.0640282357	 0.9841208617	 0.083696
H	 0.5916660101	-1.5356379519	-0.9784278671	 0.151562
H	 0.2622970547	 0.660594894	-2.6986376924	 0.303768
