22
gdb 57647	2.65578	1.03307	0.9426	2.0437	83.15	-0.2353	-0.0184	0.2169	1381.8342	0.191273	-404.32987	-404.319572	-404.318628	-404.365322	37.626	
C	-0.0156453269	 1.641530247	 0.2237254803	-0.424286
C	 0.0432977159	 0.1072689111	 0.0727045774	 0.139662
C	 0.8184557777	-0.4992682247	 1.2626976955	-0.417525
C	-1.3573342989	-0.5187908219	-0.0483049872	-0.155655
N	-2.1703187637	-0.2688568897	 1.1391277323	-0.076366
C	-3.1763575786	 0.7868418756	 1.0479095667	-0.221117
C	-3.5753685007	-0.6457590999	 1.0380514533	-0.220284
C	 0.843140017	-0.1960605019	-1.1854513947	 0.152882
O	 0.4579781293	-0.83934417	-2.1281147117	-0.262054
H	 0.9909466147	 2.0737189614	 0.2206946893	 0.115808
H	-0.5838843067	 2.1043408467	-0.5898512294	 0.119212
H	-0.4915901644	 1.9067572937	 1.1708598965	 0.138333
H	 0.2728553692	-0.3020377511	 2.1880872967	 0.144046
H	 0.9231116618	-1.583929183	 1.1558060384	 0.121764
H	 1.8208454453	-0.0661611344	 1.346084154	 0.111564
H	-1.843094357	-0.1572711693	-0.9702089393	 0.091086
H	-1.2469536621	-1.6025352909	-0.16061644	 0.111876
H	-3.3119357893	 1.3938333795	 1.9386956157	 0.115923
H	-3.2606493244	 1.3307393535	 0.1082413477	 0.111671
H	-3.9252831174	-1.0556128494	 0.0917171341	 0.112993
H	-4.0065329368	-1.1076783187	 1.9217126441	 0.116655
H	 1.8718148059	 0.2384055063	-1.1732255696	 0.073813
