17
gdb 51808	4.21529	0.97743	0.8747	3.205	69.35	-0.2491	0.0044	0.2536	1297.1889	0.136123	-458.964511	-458.956568	-458.955624	-458.998145	29.111	
O	 0.0715860528	-0.0126907691	-0.1314955985	-0.273364
C	 0.0932880236	 1.1729843978	-0.2673880604	 0.167443
O	 0.9983774406	 1.9600776599	 0.3433718852	-0.186105
C	 0.9649998505	 3.3729041279	 0.0868631866	 0.081713
C	 1.0774270174	 4.1212515039	 1.4398990158	-0.125187
O	 1.8601822226	 5.2828618758	 1.2128709499	-0.251569
C	 2.6566104417	 5.0622112665	 0.0761919239	 0.11925
C	 3.4956121791	 3.8198201629	 0.0011438204	-0.323723
C	 2.1489482101	 3.8808534611	-0.7049158708	-0.096614
H	-0.6199729793	 1.7437841928	-0.894337247	 0.077259
H	 0.0312359555	 3.616031688	-0.4331904957	 0.096667
H	 0.110328938	 4.4340244457	 1.8420516359	 0.120318
H	 1.5516288856	 3.448140253	 2.165909633	 0.124483
H	 2.9834707944	 5.9900974504	-0.3767476778	 0.11113
H	 4.3756237349	 3.8538966693	-0.6311743273	 0.123547
H	 3.5955127579	 3.1871318121	 0.8757625648	 0.136482
H	 2.0994934347	 3.8690129419	-1.786661298	 0.098269
