19
gdb 62051	4.22659	0.66362	0.62531	3.7552	77.05	-0.2704	0.027	0.2974	1767.4804	0.158832	-419.19061	-419.180831	-419.179887	-419.226619	34.513	
N	-0.0031418731	 1.4629000178	 0.1878995491	-0.492214
C	-0.0212733111	 0.0142873761	-0.0278420135	-0.137858
C	-1.432730243	-0.5559307937	 0.2114246697	-0.170719
C	-1.9143717897	-0.3518699991	 1.6533043191	-0.230378
C	-3.3267431291	-0.8474860454	 1.8443689709	 0.092078
C	-4.2942411217	-0.1495146885	 2.6989860813	-0.180029
O	-4.3616406559	-0.0379367747	 1.2760957233	-0.236018
C	 0.46682861	-0.3759946041	-1.3698512957	 0.254798
N	 0.8512839036	-0.6391152421	-2.4282994384	-0.32105
H	 0.9400143174	 1.8231719028	 0.0797003769	 0.245734
H	-0.571269591	 1.9213067778	-0.5197037842	 0.244142
H	 0.6634061084	-0.4334015958	 0.7037080898	 0.130084
H	-2.1330736665	-0.0715150017	-0.4792954358	 0.130256
H	-1.4277384638	-1.621525775	-0.0436000584	 0.118433
H	-1.2509953614	-0.8863898213	 2.3469167871	 0.100183
H	-1.8606808178	 0.7100958279	 1.9073778523	 0.129116
H	-3.4754558124	-1.9179550387	 1.6853670342	 0.091921
H	-5.1082673677	-0.7033528992	 3.1645929513	 0.116265
H	-3.9879939452	 0.7544919469	 3.224138231	 0.115255
