21
gdb 69650	3.94347	1.11736	1.03199	2.1894	82.53	-0.2412	0.0714	0.3126	1243.9236	0.182347	-387.042856	-387.03433	-387.033386	-387.076234	32.86	
C	-0.0378654313	 1.5741884754	 0.0189702064	-0.496755
C	 0.0410511944	 0.0753008642	-0.0036463008	 0.37641
C	-0.8775459712	-0.813850888	 0.7869014036	-0.33365
C	 0.6090093414	-0.9094010863	 1.026384144	-0.171539
C	 1.2578115371	-1.7377135408	-0.0793939648	 0.322059
C	 2.7726534525	-2.0242924074	-0.0389129875	-0.140454
O	 2.5550703756	-3.4479890821	-0.0570663571	-0.27588
C	 1.1259110291	-3.2732500353	-0.1529587118	-0.132458
C	 0.6736527481	-0.7523130193	-1.1355862527	-0.379745
H	 0.9279389604	 2.0304837973	-0.2274297754	 0.115523
H	-0.772501637	 1.9444289647	-0.7068162918	 0.120526
H	-0.3388002833	 1.9397737385	 1.0063570329	 0.117851
H	-1.4383924936	-0.3188223191	 1.5740023951	 0.109488
H	-1.4136396663	-1.6331919235	 0.3111326064	 0.103448
H	 1.0468487027	-0.7167181569	 2.000266895	 0.083298
H	 3.3380385226	-1.6818885338	-0.9169867356	 0.093907
H	 3.2966444377	-1.6984586428	 0.8698010314	 0.098003
H	 0.5942723749	-3.7446306439	 0.6838075658	 0.099618
H	 0.7292945752	-3.6685622227	-1.0980417199	 0.095102
H	-0.0173878288	-1.1714552914	-1.8762576098	 0.09339
H	 1.4670524296	-0.2151639569	-1.6646693135	 0.10186
