17
gdb 116842	3.51143	0.63544	0.54347	2.9473	82.49	-0.2567	-0.1013	0.1553	1988.0232	0.13228	-421.820977	-421.810645	-421.809701	-421.858902	34.285	
C	 0.1189952034	 1.4248416696	 0.2231023667	-0.38444
C	 0.082067826	-0.0992470159	 0.1009319807	-0.159696
C	 0.6935897103	-0.5884149914	-1.2283129383	-0.349908
C	 0.6764543138	-2.0334561589	-1.3812584087	 0.036602
C	 0.6524949293	-3.2367831898	-1.4883777794	 0.147454
C	 0.6195173874	-4.6648648261	-1.6067231388	 0.103763
O	 1.0389491306	-5.2987218672	-2.5541329927	-0.261003
C	 0.0008654356	-5.4422346595	-0.4331631653	 0.083161
O	-0.4473062574	-4.9337961079	 0.5570415509	-0.21711
H	 1.1464102089	 1.8032796296	 0.1821463019	 0.119507
H	-0.4436769915	 1.9034028648	-0.5861278154	 0.119509
H	-0.3183153989	 1.7515530014	 1.1707775477	 0.122584
H	 0.6269931839	-0.5605253154	 0.9313701185	 0.120137
H	-0.9492202917	-0.4612697028	 0.169702518	 0.120158
H	 0.1575529477	-0.1382367235	-2.075211474	 0.144979
H	 1.7311145619	-0.2372957012	-1.3148360339	 0.144971
H	 0.0195231506	-6.5377030658	-0.6147069979	 0.109331
