11
gdb 42155	3.29503	0.73323	0.60198	4.735	72.16	-0.3187	-0.1244	0.1943	1659.1237	0.063898	-414.394556	-414.385679	-414.384735	-414.430807	28.796	
O	 0.0331154013	-0.0911249932	 0.0013661379	-0.239618
C	-0.0178122436	 1.1161385494	 0.0061974884	 0.200818
C	 1.2087642191	 1.930964913	 0.0009371828	 0.233744
N	 2.1779175168	 2.5613099282	-0.0032801469	-0.305938
C	-1.2361842794	 1.8798436062	 0.017213312	 0.107124
C	-2.2656877935	 2.5057106638	 0.0263744675	 0.064716
C	-3.5282634595	 3.2345724827	 0.0369454995	-0.480611
C	-3.3624674849	 4.6927401956	 0.04324834	 0.286687
N	-3.2504734007	 5.8411425666	 0.0483535459	-0.27841
H	-4.1250475469	 2.9480821417	-0.838883037	 0.205751
H	-4.1153917986	 2.9393801959	 0.9163945699	 0.205736
