22
gdb 102104	2.17787	1.10654	0.85091	2.922	83.4	-0.2454	-0.021	0.2243	1464.3255	0.191779	-404.338799	-404.328104	-404.32716	-404.376048	37.652	
C	 0.0225669236	 1.5282459424	 0.3044556021	-0.394366
C	-0.1053934629	 0.0087528233	 0.1653785166	-0.193291
C	-1.5239633202	-0.4612716469	-0.2283705672	-0.059359
C	-1.8530262632	 0.0033787436	-1.6338138007	 0.168331
O	-2.7207281974	 0.783624445	-1.9295384803	-0.254883
C	-1.6151726134	-1.9788249396	-0.1697366818	-0.042984
N	-1.7211744469	-2.5849199732	 1.1672028381	-0.343084
C	-2.8361514542	-2.7417548605	 0.2140251097	-0.00284
C	-4.1593865692	-2.1154895172	 0.5837614528	-0.398249
H	 1.0428511219	 1.8098600171	 0.5817281075	 0.115311
H	-0.2254081078	 2.044275129	-0.6287655351	 0.127685
H	-0.6520801423	 1.9093206043	 1.0781996586	 0.124744
H	 0.6152820592	-0.3615197813	-0.5772268882	 0.093705
H	 0.1464793867	-0.4801972692	 1.1124851034	 0.120959
H	-2.2555719198	-0.0141241722	 0.4491947347	 0.096844
H	-1.1946283192	-0.4415674654	-2.4205020051	 0.065328
H	-0.9555679766	-2.4764971857	-0.8825296049	 0.081377
H	-1.1663064795	-3.4344106472	 1.2214318106	 0.231306
H	-2.9291258075	-3.7169857348	-0.2638008288	 0.083347
H	-4.0197554252	-1.1796371455	 1.1281430521	 0.133363
H	-4.7587357182	-1.911655463	-0.309779113	 0.126264
H	-4.7311359479	-2.7915250728	 1.2282989388	 0.120492
