16
gdb 29130	3.14618	1.42271	0.98584	1.6968	78.69	-0.1947	-0.0267	0.1681	1152.9201	0.12603	-434.149884	-434.141604	-434.14066	-434.182412	31.513	
C	 0.0138620975	 1.537120098	 0.0188359205	-0.467221
C	-0.025069094	 0.0362406937	-0.0054033981	 0.294807
C	-1.1832398281	-0.6585064034	-0.1244482371	-0.102464
N	-1.140027209	-2.0426169949	-0.1440143744	-0.349471
C	 0.0137063207	-2.7736988107	-0.0458135493	 0.388526
O	 0.0565842198	-3.998327724	-0.0780671027	-0.413306
C	 1.2135594015	-1.9086085412	 0.0935644679	 0.28128
N	 2.3655436133	-2.606560857	 0.2296276885	-0.543729
N	 1.1895295779	-0.6051898715	 0.1007745627	-0.393392
H	 0.6321333911	 1.9199989336	-0.80039649	 0.132942
H	-0.9869706304	 1.9672814414	-0.0720788419	 0.114333
H	 0.4629140134	 1.8964651926	 0.9511306203	 0.133743
H	-2.1610435574	-0.2058150964	-0.2097781689	 0.121186
H	-1.9890430631	-2.5810773113	-0.2434056125	 0.263298
H	 2.3145918721	-3.6002390551	 0.0732776305	 0.276621
H	 3.2437751547	-2.1213601437	 0.1741941145	 0.262846
