18
gdb 37425	2.87186	2.17794	1.76217	0.2872	72.47	-0.2137	0.0707	0.2844	840.1063	0.151239	-401.89301	-401.887003	-401.886059	-401.923036	25.897	
C	-0.0645479728	 1.5535636851	 0.0097631574	-0.262298
C	 1.4822756993	 1.5404958797	 0.0287557772	 0.033253
C	 2.2010444324	 1.43562934	 1.394614062	-0.262298
C	 2.0480552795	-0.1123451673	 1.2735479603	-0.026687
C	 0.9559379014	-0.7575468404	 2.1088168033	 0.028816
O	-0.0960973958	 0.1381405012	 2.4915458372	-0.242375
C	-0.3006216942	-0.6921329752	 1.3407486808	 0.028815
C	-0.0047824563	-0.0054854494	 0.0187517081	-0.026687
N	 1.5009245153	 0.0323709384	-0.1301879444	-0.13967
H	-0.559308135	 2.0108294081	 0.8678743474	 0.120547
H	-0.4800410483	 1.9646293497	-0.9124568308	 0.103944
H	 1.9831790412	 2.134418044	-0.7401353404	 0.071202
H	 3.2395527004	 1.7710102408	 1.3611586544	 0.103944
H	 1.6976217162	 1.8933431142	 2.247432058	 0.120547
H	 2.97471251	-0.691131345	 1.3144280448	 0.075497
H	 1.1821131812	-1.5423752373	 2.826006222	 0.098976
H	-1.0995046631	-1.4236004927	 1.431374143	 0.098976
H	-0.5047737615	-0.5100111438	-0.8124046903	 0.075498
