17
gdb 38097	3.01315	1.92607	1.37758	1.844	76.53	-0.2437	-0.0024	0.2413	931.7188	0.138057	-384.685416	-384.678921	-384.677977	-384.715987	27.115	
C	-0.0121313024	 1.5495916093	 0.1899494373	-0.389759
C	 1.411348363	 1.980145966	-0.1079382959	-0.065642
C	 2.1925121705	 0.9757310285	-0.5133399218	-0.084614
C	 1.4294779843	-0.3299020683	-0.6015640736	-0.156845
C	 1.9257947611	-1.5562133623	 0.1426604398	-0.101046
C	 1.1132698858	-1.8889220029	 1.1517061275	-0.083091
C	-0.0169493151	-0.9186503516	 1.2549923061	-0.08524
O	-0.9238137554	-0.8912388203	 0.1108840063	-0.319697
C	 0.1405686671	 0.0397602555	 0.1533763992	 0.45626
H	-0.3850300034	 1.920177945	 1.1510127034	 0.113312
H	-0.7128511829	 1.9034265274	-0.5795395114	 0.119804
H	 1.7307441756	 3.0118481583	-0.0116914995	 0.098122
H	 3.2365607052	 1.0697079482	-0.7899735985	 0.097037
H	 1.2377717746	-0.5905356881	-1.653425841	 0.101291
H	 2.7974415505	-2.1199962531	-0.172344666	 0.101053
H	 1.2357178131	-2.7384971304	 1.8126024529	 0.102291
H	-0.4892715515	-0.6744525111	 2.2019022351	 0.096765
