21
gdb 109653	2.17236	1.14653	1.02453	2.6385	80.61	-0.2471	-0.0204	0.2268	1332.0289	0.179086	-424.229467	-424.218751	-424.217807	-424.265295	38.173	
C	-0.1940678558	 1.5039895774	-0.232782933	-0.374809
C	-0.1028247548	 0.0374984171	 0.2110077235	-0.219851
C	-1.4213765621	-0.6874453183	 0.0413594853	-0.069646
C	-1.7605840896	-1.4291077951	-1.209321348	 0.063198
O	-0.8111881675	-1.5914765899	-2.2182030815	-0.419308
C	-1.5031302487	-2.2234487859	 0.0798149814	 0.16389
C	-0.2592385309	-3.0805838266	 0.2020732521	-0.494421
C	-2.7415039566	-2.7586810024	 0.7058212674	 0.092537
O	-3.7986038039	-2.1716817212	 0.7515415354	-0.277435
H	 0.7605458947	 2.0192645745	-0.0899177415	 0.116883
H	-0.4618098472	 1.5851387295	-1.2925037893	 0.10474
H	-0.9565707107	 2.044197261	 0.3380312543	 0.123925
H	 0.6805885877	-0.469922533	-0.3595508038	 0.109328
H	 0.2023088931	-0.0045130303	 1.2636162907	 0.105245
H	-2.2757670943	-0.2170659093	 0.5236370272	 0.107922
H	-2.797183918	-1.4169382859	-1.5427727835	 0.109819
H	-0.6874933522	-0.7411682459	-2.6530391433	 0.296001
H	 0.4364314375	-2.8836843085	-0.6143078898	 0.148464
H	 0.2612327425	-2.9132176062	 1.1510928489	 0.120886
H	-0.5271885993	-4.1419055691	 0.1545140157	 0.120166
H	-2.639554444	-3.7798791119	 1.137984112	 0.072467
