17
gdb 90019	2.8576	1.51655	1.18331	2.1547	68.85	-0.2578	-0.0454	0.2124	1049.4705	0.134856	-458.944985	-458.937027	-458.936083	-458.977453	30.605	
O	-0.0376505033	 1.4553903881	-0.1414303838	-0.442108
C	 0.0087587045	 0.0536741287	-0.058140057	 0.147896
C	 0.3356634684	-0.5057850406	 1.3614706676	-0.320252
C	-1.1908242002	-0.6251147541	 1.5816556501	 0.324649
C	-1.3847554215	-0.6408289803	 0.0469634485	-0.320247
O	-1.7800160721	-1.6066639398	 2.4536795217	-0.32996
C	-2.4734668361	-0.6273428423	 3.2587894618	-0.19544
C	-1.8823444323	 0.472599331	 2.3737460845	 0.290921
O	-1.9193318688	 1.6679891018	 2.2994630223	-0.299323
H	-0.6040742409	 1.8013984054	 0.564577494	 0.294876
H	 0.6556395085	-0.2795637794	-0.8705578524	 0.092817
H	 0.7866352353	-1.5009601452	 1.318215033	 0.12248
H	 0.908005979	 0.1366547639	 2.0345454755	 0.115105
H	-2.2426750809	-0.1105947033	-0.3727390701	 0.115103
H	-1.3612441859	-1.6695348656	-0.3229417608	 0.122482
H	-3.5645593019	-0.7300803989	 3.2172052439	 0.140496
H	-2.1446340516	-0.6186096695	 4.3049514813	 0.140505
