20
gdb 98582	2.6056	1.15804	0.93894	4.4174	77.24	-0.2515	0.0059	0.2574	1319.759	0.168649	-440.290082	-440.279968	-440.279024	-440.325441	36.256	
C	 0.2300315303	 1.4752418954	 0.3409763304	-0.417293
C	-0.0249285675	 0.024885701	 0.0022447923	-0.024146
C	 0.6863213825	-0.7000390917	-1.1216775343	-0.009419
C	 1.7345311757	-0.0588720256	-2.001100669	-0.408092
N	 0.9538812519	-1.0177702971	 0.2631095949	-0.094617
C	 2.1481641729	-1.0219199305	 0.9299848267	 0.355811
O	 3.191270332	-1.4251247579	 0.4414734915	-0.379775
C	 2.108096654	-0.6172120314	 2.404657052	-0.133276
O	 3.3757748397	-0.7584562941	 2.9756156131	-0.421914
H	 1.2652998079	 1.771900648	 0.1592498629	 0.13486
H	-0.4211039905	 2.1143669092	-0.2645872823	 0.132672
H	 0.0011865798	 1.6759370646	 1.3924947335	 0.13735
H	-1.048182151	-0.2939747399	 0.2009853832	 0.104111
H	 0.1025651038	-1.469315945	-1.6272937508	 0.103591
H	 2.2668754093	 0.7501006137	-1.4977495467	 0.128257
H	 2.4783076378	-0.8017996623	-2.2994413869	 0.153239
H	 1.2640146287	 0.3441351957	-2.9037086907	 0.121548
H	 1.7545318084	 0.4220651202	 2.4877252757	 0.10708
H	 1.3612117757	-1.2460946011	 2.9141718656	 0.116752
H	 3.9247359085	-1.1189880814	 2.2589618292	 0.293261
