23
gdb 109220	3.5709	0.96892	0.85924	0.3112	92.57	-0.2241	0.0345	0.2586	1473.0187	0.206152	-351.166094	-351.156882	-351.155937	-351.200661	35.448	
C	-0.0429890162	 1.5349809076	 0.3372737959	-0.373184
C	-0.0599863563	 0.0749858065	-0.1496232244	-0.288495
C	-1.4198950366	-0.5582121183	-0.1093690014	 0.350429
C	-2.1246775884	-1.007230483	-1.1508301085	-0.176992
C	-3.4685094487	-1.5683551162	-0.7618472287	-0.338505
C	-3.3956050314	-1.5936538751	 0.7734730071	 0.381591
C	-4.6352842389	-1.6675750062	 1.6215163952	-0.313941
C	-3.7169864704	-2.862831031	 1.5226989648	-0.303194
C	-2.1858026429	-0.7432170787	 1.1866154895	-0.39195
H	 0.9674774429	 1.9513805587	 0.2808236863	 0.111854
H	-0.7021883276	 2.1584203172	-0.2751662985	 0.119135
H	-0.3778061081	 1.6154125263	 1.3762255994	 0.119603
H	 0.3308186728	 0.0270902405	-1.1724062935	 0.099305
H	 0.6310368759	-0.5093025335	 0.4751578562	 0.100005
H	-1.7900176635	-0.9617489761	-2.1825314549	 0.079734
H	-4.2860571194	-0.9272229912	-1.124959694	 0.10127
H	-3.6510513328	-2.5644556568	-1.1857125929	 0.099572
H	-4.6524407166	-1.1120817739	 2.5542325955	 0.105435
H	-5.5967144437	-1.7189342155	 1.1197190914	 0.106063
H	-4.0565518594	-3.721969678	 0.9522800494	 0.106482
H	-3.1113876713	-3.1142006191	 2.3881251087	 0.10584
H	-1.5777991364	-1.2287750083	 1.9621424677	 0.09678
H	-2.491701843	 0.2277121643	 1.6033579195	 0.103163
