15
gdb 2781	4.91641	1.93882	1.49606	1.0904	58.11	-0.2563	-0.0314	0.2249	819.2454	0.123526	-345.654016	-345.646719	-345.645775	-345.685744	25.585	
C	 0.0572470616	 1.5644131345	 0.0313931913	-0.384723
C	-0.2287707546	 0.0716902806	-0.1569897521	-0.188653
C	 0.668180144	-0.5585967462	-1.2127771518	 0.025443
O	 2.0779921821	-0.5663457141	-0.8570249508	-0.292241
C	 2.1984885368	-2.0004465008	-0.9320459441	-0.188817
C	 0.7092247029	-2.0926341682	-1.2877821456	 0.334367
O	-0.0770604301	-2.9626294423	-1.503522264	-0.272895
H	 1.1016119938	 1.7216776301	 0.3148527546	 0.139568
H	-0.1294244249	 2.1227531937	-0.8923333813	 0.117585
H	-0.5775600882	 1.9880924399	 0.8148999193	 0.117983
H	-0.0897325916	-0.4610868038	 0.7911636623	 0.105235
H	-1.2692258782	-0.0899411124	-0.4641466753	 0.116721
H	 0.5133391115	-0.0809728836	-2.1919933983	 0.103856
H	 2.8846047871	-2.3348775401	-1.7210411728	 0.132528
H	 2.4901235277	-2.4603505272	 0.0206166187	 0.134045
