21
gdb 80975	2.71361	1.41039	1.14953	1.3057	84.33	-0.2157	0.0223	0.238	1174.4414	0.181549	-387.067232	-387.058239	-387.057295	-387.100146	35.465	
C	-0.1805421756	 1.5114951196	 0.0564194467	-0.436023
C	 0.0309453004	 0.0039097987	 0.0177304307	 0.029003
C	 0.8606559682	-0.6274752383	-1.1713574292	-0.141653
C	 2.1504850957	-0.2045852772	-0.3914804996	-0.291081
C	 1.2341162494	-0.6036950257	 0.8210946971	 0.383164
O	 1.4448100139	-0.1750560327	 2.1290264527	-0.49245
C	 1.0290981604	-2.1001569731	 0.5191779767	-0.302638
C	 0.7816588534	-2.1193302117	-0.7954290321	 0.362251
C	 0.4743760369	-3.2333062706	-1.7349578618	-0.517397
H	 0.7208292413	 2.085552868	-0.1712006448	 0.116987
H	-0.9531764321	 1.8048488155	-0.6629618156	 0.11094
H	-0.5212293881	 1.8145575256	 1.0519135435	 0.129301
H	-0.9176996682	-0.5067954837	 0.2092911847	 0.065052
H	 0.6913632869	-0.3403212729	-2.2088522876	 0.058333
H	 3.0488787839	-0.8036847274	-0.559014617	 0.084147
H	 2.3812024436	 0.8616243783	-0.4420716714	 0.096407
H	 2.2195678028	-0.6287058009	 2.4775514559	 0.278155
H	 1.0540348471	-2.9051456228	 1.2420098693	 0.091394
H	 0.4682871105	-4.1990231055	-1.2212114171	 0.124035
H	-0.5053267023	-3.0960434881	-2.2109215832	 0.126605
H	 1.2089855321	-3.285852485	-2.549075768	 0.125472
