21
gdb 92664	2.47546	1.64623	1.42243	2.0014	77.69	-0.243	0.0754	0.3184	1036.0308	0.185324	-424.222159	-424.214438	-424.213494	-424.25399	31.624	
O	 0.2645901867	 1.4129478201	-0.0708757327	-0.438692
C	 0.1211496233	 0.0098619706	 0.0007700737	 0.125958
C	 0.2215558306	-0.5648554277	 1.4456668536	-0.273177
C	-1.3181804436	-0.5243876624	 1.5171395415	 0.088251
O	-1.7000601034	 0.7506756989	 2.0303894862	-0.274454
C	-2.9843239801	 1.1613718608	 1.5645527795	-0.071913
C	-2.9470126584	 1.4620339182	 0.067027647	-0.209563
C	-2.4926152158	 0.2225743492	-0.7242977987	-0.231867
C	-1.3521171364	-0.5291868291	-0.0370573963	-0.024176
H	-0.1933670015	 1.7728010022	 0.6993637141	 0.283611
H	 0.7985611043	-0.4019592217	-0.7514859644	 0.077829
H	 0.6040601103	-1.5886959864	 1.4632496465	 0.103279
H	 0.7570970891	 0.04047501	 2.1808162878	 0.108357
H	-1.8522414221	-1.3191719425	 2.0562964865	 0.059399
H	-3.7309449857	 0.381201402	 1.788267649	 0.088217
H	-3.2457593792	 2.0501871743	 2.1460404123	 0.107118
H	-3.9382079739	 1.7868278472	-0.2692663757	 0.093547
H	-2.2584784619	 2.2945194896	-0.1077685555	 0.112815
H	-3.3451050848	-0.4626686413	-0.8208696906	 0.094986
H	-2.2020191332	 0.5035997394	-1.7425879094	 0.107498
H	-1.3166080941	-1.5655054813	-0.3915483843	 0.072977
