21
gdb 108911	3.36378	1.1208	0.97564	1.4188	84.94	-0.2099	0.0264	0.2363	1298.1712	0.182381	-387.05834	-387.049527	-387.048583	-387.091663	34.251	
C	 0.0147524673	 1.5516167909	 0.0247295345	-0.504732
C	 0.0187963034	 0.040388905	 0.027901843	 0.308878
C	 0.9381147701	-0.8163237645	-0.9187524576	-0.23987
C	 0.5611945413	-1.9371853929	 0.1066088522	-0.134954
C	 0.6451104959	-0.8126240776	 1.1920900146	-0.239858
C	-0.961753642	-2.0017337106	-0.1048794402	 0.360116
C	-1.7621695189	-3.2485716184	-0.2139984784	-0.219023
O	-3.1271264643	-2.9181827215	-0.3997696641	-0.412608
C	-1.3141346759	-0.715070925	-0.1556314409	-0.242901
H	 1.0237806356	 1.9536698046	 0.163802427	 0.110167
H	-0.3735094894	 1.9435056024	-0.9223768978	 0.116751
H	-0.616134116	 1.9465050033	 0.8293285031	 0.116771
H	 0.6115258858	-0.9473254004	-1.9536035166	 0.088149
H	 1.993677204	-0.525026747	-0.8755527493	 0.084828
H	 1.1199689121	-2.870497845	 0.1858006341	 0.05325
H	 1.6726498732	-0.5209149334	 1.4370431277	 0.084825
H	 0.0489098225	-0.940238422	 2.0992765228	 0.088228
H	-1.3786105158	-3.8597158487	-1.0517983255	 0.09388
H	-1.6164812284	-3.8598794897	 0.6957658452	 0.09382
H	-3.6240869013	-3.7375655709	-0.4752020526	 0.28853
H	-2.2907778793	-0.2745455385	-0.2915726209	 0.105751
