15
gdb 13831	4.66463	1.58436	1.20569	1.7017	63.41	-0.2228	-0.0271	0.1957	956.0499	0.121334	-396.033152	-396.025665	-396.024721	-396.065095	27.382	
N	-0.0575069262	 1.2848413573	 0.0263330546	-0.52489
C	 0.0277153119	-0.0625272694	 0.0836261635	 0.354711
O	 1.059567689	-0.7114968203	 0.1041967712	-0.375179
C	-1.3158976384	-0.7405735605	 0.1105676401	 0.295824
N	-2.4333762679	-0.1328943948	-0.053586581	-0.328795
C	-3.4692419489	-1.1814791424	 0.037041491	-0.165785
C	-2.702889161	-2.5361843175	-0.0335516019	-0.182166
N	-1.3515008356	-2.0955143689	 0.3222926763	-0.333804
H	 0.7816405203	 1.8320755919	-0.0602606261	 0.265378
H	-0.9686491869	 1.710046131	-0.0439839029	 0.279719
H	-4.0001398133	-1.0753298669	 0.9922167768	 0.116467
H	-4.2085609226	-1.0679192485	-0.7601507196	 0.11495
H	-3.0846560659	-3.281192635	 0.6691223179	 0.116172
H	-2.7323764985	-2.9682782052	-1.0439393781	 0.107453
H	-0.526411326	-2.6280546908	 0.0903655182	 0.259944
