21
gdb 92264	2.14533	1.85731	1.21337	1.6998	84.08	-0.2328	0.0246	0.2574	1111.5386	0.183006	-387.101424	-387.09293	-387.091985	-387.134264	33.068	
C	-0.8093496392	 1.2857622839	 0.1606645292	-0.407792
C	-0.0113969183	 0.0102701324	-0.0080684042	 0.162048
O	 1.1364737641	 0.1896178134	-0.8731830257	-0.313516
C	 2.0114918761	-0.4984795907	 0.0489558129	 0.127904
C	 3.1527131565	 0.3883437601	 0.5701446805	-0.276193
C	 2.5818619302	 0.9603323143	 1.8459379668	-0.165882
C	 1.3817468343	 0.4649702586	 2.1681010911	 0.335739
C	 0.5744537121	 0.7869735706	 3.3884211102	-0.500849
C	 0.9058403497	-0.5270707073	 1.1335828798	-0.205042
H	-0.1932553152	 2.0754715881	 0.5987555583	 0.124914
H	-1.1650272526	 1.6294460516	-0.8160243216	 0.125165
H	-1.6838001905	 1.1167808984	 0.798578773	 0.111787
H	-0.6583869447	-0.7873241783	-0.4033747642	 0.066745
H	 2.3472821572	-1.4556688871	-0.3650371659	 0.068087
H	 4.0723456455	-0.183289569	 0.7555405131	 0.099291
H	 3.3985434484	 1.1538061647	-0.1759551544	 0.118579
H	 3.1186382271	 1.6892402047	 2.4455843232	 0.084836
H	 1.0879459019	 1.5077544008	 4.0306359768	 0.12364
H	-0.4056139396	 1.2037209617	 3.1270472406	 0.127858
H	 0.3797704305	-0.1168771498	 3.9802570647	 0.123591
H	 0.5985530964	-1.4863840415	 1.5599682559	 0.069091
