18
gdb 38797	3.0955	2.18677	1.80119	1.3297	72.71	-0.2163	0.0593	0.2756	820.6858	0.152026	-401.874977	-401.869348	-401.868404	-401.904607	24.924	
C	-0.0058979409	 1.5092957374	 0.0540362031	-0.165057
C	 1.5404321078	 1.4439995049	-0.0235331906	-0.05606
C	 2.0665234447	 1.3787222401	 1.4211748074	-0.219921
C	 1.7104272559	-0.0107713091	 1.9440336905	 0.082743
O	 2.6620325586	-0.9301783849	 1.3222025424	-0.303365
C	 1.6897325384	-1.2045940921	 0.3197261477	 0.113047
C	 1.3216855911	-0.0040173498	-0.6149754671	-0.035643
N	-0.0813157781	 0.019832887	-0.0228799953	-0.14032
C	 0.5090136927	-0.6929611221	 1.1541312853	-0.078964
H	-0.4462571538	 1.9670072376	 0.9472088204	 0.096915
H	-0.4835771761	 1.9326742375	-0.8349156917	 0.106554
H	 2.0627700505	 2.1770619126	-0.6415902036	 0.069329
H	 3.1540886386	 1.4808131739	 1.4837916265	 0.112888
H	 1.6166957214	 2.1821682977	 2.016087038	 0.094893
H	 1.7156503121	-0.1103963057	 3.0321343263	 0.079608
H	 1.7856524401	-2.1873516019	-0.1440468875	 0.088405
H	 1.4067102491	-0.1023680542	-1.6996507535	 0.071823
H	-0.1762481719	-1.300275529	 1.7454280319	 0.083126
