19
gdb 37217	3.37176	1.52501	1.24358	1.6616	81.48	-0.226	0.0163	0.2423	1041.2354	0.161426	-385.84398	-385.836697	-385.835753	-385.875897	29.13	
C	-0.0713796568	 1.4176818486	-0.2108911124	-0.274503
C	 1.2787373164	 0.832495657	 0.0684882943	-0.085258
C	 0.0209211798	-0.0650774821	 0.1067433155	-0.1838
C	 0.4979334478	-0.7413582007	-1.1391214088	 0.39377
C	 0.1192555112	-1.4895328503	-2.1639217679	-0.285564
C	 1.057485663	-1.3962574181	-3.3526412882	-0.11048
O	 1.4781683529	-0.0486135406	-3.5758092603	-0.259525
C	 2.1953605853	 0.5814094901	-2.5137220415	-0.089612
C	 1.8097188853	 0.0163685353	-1.1332098565	-0.112108
H	-0.4832335687	 2.0292143421	 0.5863108197	 0.114906
H	-0.3493227837	 1.737964327	-1.2112073929	 0.123627
H	 1.8851812313	 1.1679937673	 0.9004346185	 0.089679
H	-0.4972279284	-0.50052977	 0.9516524311	 0.096797
H	-0.8117841762	-2.0424546407	-2.2292926102	 0.091974
H	 1.9346342269	-2.0561286653	-3.2327195652	 0.091738
H	 0.5518249907	-1.6938964138	-4.2753198767	 0.113133
H	 3.2774112994	 0.4716923128	-2.6851267108	 0.08433
H	 1.9539578166	 1.6476562258	-2.5832663746	 0.107323
H	 2.5992198971	-0.6551456145	-0.775092293	 0.093572
