21
gdb 72890	2.89807	1.40977	1.16791	1.2375	82.49	-0.2415	0.0743	0.3158	1139.8009	0.182106	-387.049625	-387.041093	-387.040149	-387.082919	33.883	
O	 0.198849477	 1.3863574791	-0.455975977	-0.482259
C	 0.0433965346	 0.0647066787	-0.0224549774	 0.425326
C	 0.4487055022	-1.0690783809	-1.00909805	-0.287069
C	-0.9966694843	-1.6523027781	-0.9297182248	-0.218649
C	-1.3959733867	-0.5489236966	 0.0855500951	-0.163142
C	-1.0936092734	-0.8848573203	 1.5532933733	 0.400753
C	-2.0504385396	-0.7909052203	 2.7043950071	-0.329166
C	-1.4828868903	-2.1310807968	 2.2943333865	-0.321839
C	 0.3025271788	-0.2383565095	 1.4817034244	-0.386213
H	 1.1400594955	 1.5954452891	-0.4513512541	 0.274784
H	 0.6992351005	-0.6725307591	-1.9959712297	 0.101948
H	 1.2569740982	-1.726352997	-0.675602745	 0.08999
H	-1.5362051545	-1.586558747	-1.8772747302	 0.100661
H	-1.0790945759	-2.6760343008	-0.5562655169	 0.097859
H	-2.2962434085	 0.0333664492	-0.1160253308	 0.06924
H	-1.6965455604	-0.3435387661	 3.628385626	 0.108903
H	-3.0947217787	-0.5912948958	 2.4848272571	 0.111177
H	-2.1454027332	-2.8361930427	 1.8012556267	 0.110534
H	-0.7440819848	-2.5940751303	 2.9411671793	 0.108789
H	 1.159390917	-0.8811461923	 1.7102353443	 0.08785
H	 0.3774582364	 0.6839394271	 2.066139896	 0.100523
