23
gdb 101633	2.00196	0.99038	0.89207	4.244	86.69	-0.2402	0.0318	0.272	1527.462	0.203936	-384.487031	-384.475869	-384.474925	-384.523969	40.128	
C	 0.0632854016	 1.6012291604	 0.131259213	-0.380561
C	-0.367621862	 0.3634015289	-0.658098212	-0.174658
C	-1.8366813974	-0.0327983825	-0.4413525054	 0.055199
C	-2.2641219362	-1.138912356	-1.4196551183	-0.406383
N	-2.0307958324	-0.3847765198	 0.9747707669	-0.289541
C	-3.4073264094	-0.4725939212	 1.4523947666	-0.091636
C	-3.4344701599	-1.0562433145	 2.8735636884	-0.406969
C	-4.0178987258	 0.8711226334	 1.4472685234	 0.306955
N	-4.5202545327	 1.9116341771	 1.4401680146	-0.332815
H	 1.1252198533	 1.8158906789	-0.0224561937	 0.106939
H	-0.5047705376	 2.4839400309	-0.1820445799	 0.118642
H	-0.111270014	 1.4570521982	 1.2000529172	 0.129939
H	-0.2101138454	 0.5289126638	-1.7306741596	 0.095562
H	 0.2685327685	-0.4927018623	-0.3893096647	 0.085887
H	-2.4568444156	 0.8549710111	-0.6230172548	 0.10475
H	-3.3080833205	-1.4346622222	-1.2757450634	 0.114817
H	-2.1600168236	-0.8044808325	-2.4567689304	 0.121981
H	-1.639093451	-2.0314911522	-1.2930338673	 0.108827
H	-1.5638515167	-1.2640239969	 1.1774426568	 0.215471
H	-4.0552764502	-1.0995471989	 0.8136536587	 0.106026
H	-4.4543655033	-1.0821285086	 3.2632005348	 0.140966
H	-3.0469180447	-2.0797613547	 2.8565506306	 0.121853
H	-2.811999205	-0.4548445307	 3.5398381485	 0.148749
