14
gdb 44318	3.45311	1.94633	1.47153	4.8138	64.84	-0.2481	0.0008	0.2489	840.0681	0.102035	-436.580603	-436.574673	-436.573729	-436.610667	24.704	
O	 0.0151277578	 0.0542335042	-0.1337564929	-0.355243
C	 0.0311939804	 1.2517693637	-0.0482850085	 0.366203
N	-1.0558328381	 2.1485528355	-0.0724756571	-0.354606
C	-0.521543256	 3.4983203023	 0.2596590141	-0.071403
C	 0.73237114	 3.5863569899	-0.6285875898	-0.074834
C	 1.773941606	 3.9101631014	 0.4655758544	-0.014589
O	 2.5175884811	 2.6103263356	 0.2876973039	-0.382469
C	 1.1227232382	 2.2913069682	 0.1577776036	 0.307701
C	 0.6255760418	 3.2709610546	 1.2778997134	-0.094098
H	-1.942432235	 1.8268509247	 0.2860490843	 0.256567
H	-1.2901216102	 4.2650537366	 0.334851586	 0.094736
H	 0.8164142497	 3.7088059688	-1.7065449789	 0.10806
H	 2.3931234722	 4.7866685822	 0.6447768143	 0.109635
H	 0.5985389123	 3.0430541324	 2.3424391532	 0.10434
