15
gdb 43071	2.99335	2.06696	1.60617	2.9624	67.96	-0.2457	-0.0173	0.2283	833.5574	0.115783	-416.803266	-416.797187	-416.796243	-416.833658	24.461	
O	 0.0352921845	 0.0080350079	 0.1414874868	-0.303027
C	-0.0551608441	 1.187236812	 0.0089980622	 0.408352
C	-1.1658528536	 2.2288302445	-0.0554097529	-0.191642
C	-1.388105491	 2.8937596726	 1.3571612306	-0.242227
C	-0.1601969065	 3.8416914714	 1.127264181	-0.013304
N	 1.0594765713	 3.4232530589	 1.8491628384	-0.187086
C	 1.6187122533	 2.524486014	 1.1468178446	 0.009906
N	 0.9988310544	 2.2031687009	-0.1134172669	-0.173267
C	-0.0320124637	 3.2702541157	-0.3030773376	-0.005014
H	-2.0385114038	 2.0477921838	-0.6805339572	 0.10337
H	-2.3303564186	 3.4451615598	 1.36844793	 0.125394
H	-1.3429648672	 2.240432744	 2.229579219	 0.130908
H	-0.3507550532	 4.9045384397	 1.2662167937	 0.095119
H	 2.4992708478	 1.9711445731	 1.4538593341	 0.149037
H	 0.0923736403	 3.8822937316	-1.194344956	 0.09348
