16
gdb 47720	2.42435	1.87212	1.28678	1.4994	65.67	-0.2705	-0.0015	0.269	979.3834	0.125299	-474.999872	-474.992317	-474.991373	-475.032232	28.374	
N	 0.2133007786	 0.7837811543	 1.1915333374	-0.52662
C	 0.1108154463	-0.1335988371	 0.3294013359	 0.385564
O	 1.1138149155	-0.4804616812	-0.5253315064	-0.246348
C	 0.7867525758	-1.5431357991	-1.4308009501	 0.002868
O	 0.330831013	-2.662518451	-0.7470639758	-0.239498
C	-0.9116529469	-2.4248139912	-0.0807907303	-0.132872
C	-1.1447145947	-0.9431998004	 0.1568254744	 0.245903
C	-2.4171301071	-0.4408220892	 0.6681107171	-0.228322
O	-2.1055051106	-0.3185734981	-0.7240299884	-0.271106
H	 1.1309257241	 1.2301973931	 1.1286480384	 0.227871
H	 0.0505031039	-1.1755719442	-2.1600766885	 0.124743
H	 1.719815224	-1.8108430789	-1.9262301722	 0.135685
H	-1.7496168402	-2.8187894132	-0.6706040217	 0.120821
H	-0.8584640935	-2.966250394	 0.8692311435	 0.13189
H	-3.2092099812	-1.1507916012	 0.9036523719	 0.116548
H	-2.414563697	 0.4857306213	 1.2351431248	 0.152873
