17
gdb 40622	4.36104	1.11338	1.09455	2.1303	72.37	-0.243	-0.0069	0.2362	1143.6873	0.136407	-421.743433	-421.736348	-421.735404	-421.775351	27.901	
C	 0.1188940472	 1.5334839285	 0.0254308002	-0.188551
O	 1.2163191792	 0.6253546911	-0.0429202802	-0.240357
C	-0.1102690371	 0.0817323539	 0.0134881193	 0.064973
C	-0.4513037465	-0.6641556255	 1.2709318759	-0.002347
C	-1.9139403402	-1.2273575203	 1.3563739986	-0.003096
O	-1.4949078762	-2.2859368835	 0.4312002938	-0.28911
C	-0.2538174786	-2.2213997009	 1.211903329	 0.003041
C	-0.7388538983	-2.6433939804	 2.6085767062	-0.081715
C	-1.8799632931	-1.9583957936	 2.7092937375	-0.083262
H	 0.0256948741	 2.0850068842	 0.96077192	 0.110292
H	-0.0668629221	 2.1162417032	-0.875844958	 0.11686
H	-0.446603635	-0.3823253185	-0.9117538324	 0.110206
H	-0.0601046666	-0.1509930047	 2.1525216961	 0.080697
H	-2.7990633925	-0.6743122291	 1.0445611063	 0.083063
H	 0.6039212888	-2.7050201636	 0.7475054576	 0.08973
H	-0.2451593172	-3.3113583097	 3.2982438484	 0.115366
H	-2.6065474858	-1.8952935512	 3.5053242717	 0.11421
