19
gdb 59912	4.2939	0.79371	0.72985	3.8111	75.5	-0.2572	-0.0126	0.2446	1587.7243	0.157796	-456.394931	-456.384924	-456.38398	-456.430456	35.571	
C	 0.5767921501	 1.4124081301	-0.8355570624	-0.39359
C	 0.2347838525	 0.1221217338	-0.1052087421	 0.157781
C	 0.6235457864	 0.1373591402	 1.3690840872	-0.396292
O	-1.2035696144	-0.0349565802	-0.2332861918	-0.29005
C	-1.6974363476	-1.2859505502	-0.1600038859	 0.505178
N	-1.0044607328	-2.326960377	 0.0123768162	-0.570428
N	-3.0955599075	-1.1865767609	-0.3165722158	-0.36381
C	-3.9884016919	-2.2258600538	-0.3042434477	 0.167934
O	-3.7126282475	-3.3952773247	-0.1596996135	-0.298601
H	 1.6564041542	 1.5848769868	-0.802046498	 0.122304
H	 0.2676931832	 1.3615059197	-1.8830490079	 0.122569
H	 0.0783589984	 2.26789736	-0.3685214688	 0.121301
H	 0.6987967354	-0.7372598067	-0.5965734561	 0.119078
H	 0.3520606356	-0.8071314855	 1.8441502747	 0.147396
H	 1.705119672	 0.2734387135	 1.4677155089	 0.117752
H	 0.1247682705	 0.9604466738	 1.8913553074	 0.114671
H	-1.6012042989	-3.1511895841	 0.020257165	 0.255426
H	-3.4514695272	-0.2514300827	-0.4480297204	 0.264309
H	-5.0247654305	-1.8656747122	-0.446250879	 0.097072
