21
gdb 61446	3.09765	0.85437	0.76254	2.0974	79.36	-0.2453	-0.0111	0.2341	1572.6698	0.178984	-424.23165	-424.221172	-424.220228	-424.268371	36.892	
C	 0.2704132609	 1.8346246841	 0.0150992092	-0.411095
C	 0.061833527	 0.3147477191	 0.0656111424	 0.001967
C	 0.6063285226	-0.3938787787	-1.1829392348	-0.309024
C	-0.1967788132	-0.1435631913	-2.4541013277	 0.379352
C	 0.4088476705	-0.6790115369	-3.7398910601	-0.472366
O	-1.2600470021	 0.4349602574	-2.443726502	-0.295627
C	 0.7037734839	-0.268890801	 1.3065536517	 0.087231
C	-0.0625297914	-0.5780787264	 2.5192708008	-0.183245
O	 0.3590677935	-1.6182814099	 1.6326083829	-0.247536
H	 1.3364938808	 2.0861626223	-0.0427095665	 0.107478
H	-0.2311879245	 2.259949081	-0.8562998072	 0.141601
H	-0.1358849803	 2.3160348497	 0.9103006444	 0.116115
H	-1.0132803326	 0.1099096477	 0.1122267175	 0.097517
H	 1.6566377047	-0.127736192	-1.3682448289	 0.108935
H	 0.6061526853	-1.4803611646	-1.0159546757	 0.142717
H	 0.6840146911	-1.7336701362	-3.6323560268	 0.137978
H	-0.2975687836	-0.5587234819	-4.5619997533	 0.142626
H	 1.3310666504	-0.1329165754	-3.970884563	 0.140259
H	 1.7681727559	-0.0496467796	 1.4263915479	 0.085766
H	 0.4255746256	-0.5679601554	 3.4929082145	 0.113805
H	-1.1349032147	-0.3868237224	 2.5358184649	 0.115546
