25
gdb 100009	2.41604	1.18699	1.09988	1.3714	87.91	-0.2624	0.0737	0.3361	1305.0129	0.226453	-389.477193	-389.466163	-389.465219	-389.513263	42.169	
C	 0.0842540008	 1.5219024919	 0.2304473986	-0.433368
C	 0.0158871592	-0.0067763029	 0.0379714707	 0.190343
C	 0.6587297052	-0.6769790186	 1.2711525368	-0.411367
C	-1.4723688791	-0.4058660085	-0.0435535124	-0.096117
O	-2.1533891589	 0.0974238653	 1.1000980992	-0.42819
C	 0.7293301398	-0.4886768002	-1.2518192881	 0.366625
C	 0.5382458099	-1.9574049012	-1.619142978	-0.472152
C	 0.8909069519	 0.4314862416	-2.443695705	-0.315483
C	 2.0900626746	 0.0724097587	-1.5992905074	-0.312329
H	 1.1155514504	 1.8822414625	 0.2790420714	 0.107267
H	-0.4312553623	 2.0582617219	-0.5716411832	 0.109045
H	-0.4087312826	 1.7904263828	 1.1662062022	 0.134965
H	 0.1214608425	-0.3896685215	 2.1781519815	 0.126641
H	 0.6332871046	-1.7687391425	 1.2040680693	 0.104461
H	 1.7047686225	-0.3723964072	 1.3753186123	 0.107485
H	-1.9042870291	 0.0045170704	-0.9709632578	 0.083558
H	-1.5655463594	-1.4996468626	-0.0869034854	 0.084294
H	-3.0614031651	-0.2154566666	 1.0679415402	 0.286225
H	-0.4952063019	-2.1834421615	-1.9018951569	 0.114951
H	 1.1672216829	-2.2130822055	-2.4772629081	 0.109871
H	 0.8172356987	-2.630546215	-0.8021872261	 0.117264
H	 0.8063408904	-0.0090221391	-3.4319234528	 0.102097
H	 0.5253857566	 1.4488984592	-2.3864250819	 0.109853
H	 2.5169805072	 0.8505012568	-0.9775671976	 0.110044
H	 2.8267550913	-0.610980958	-2.0090336714	 0.104015
