19
gdb 30092	3.62005	1.14437	1.05247	0.4377	83.79	-0.2031	0.021	0.2241	1219.9638	0.160283	-385.912489	-385.904324	-385.903379	-385.945635	31.361	
C	-0.0980561902	 1.5558365398	-0.1653681322	-0.416562
C	 0.0245220472	 0.056186773	-0.0205123594	 0.008679
C	 1.3474184349	-0.6435751173	-0.1638916852	-0.303579
C	 0.6777008696	-0.5993708067	 1.195165107	-0.129343
C	 1.2539727039	 0.1497419221	 2.3188513487	 0.39012
C	 1.0735165454	 0.055863266	 3.667199272	-0.290413
C	 1.9201128796	 1.0446474156	 4.2673695127	-0.169102
C	 2.5535593061	 1.668030439	 3.243438126	-0.027047
O	 2.1632906308	 1.1346076326	 2.0502595707	-0.185256
H	 0.7834105174	 2.0690684348	 0.224835844	 0.136281
H	-0.2118565773	 1.8321124418	-1.2195716985	 0.113951
H	-0.9728170928	 1.9352382452	 0.3743640064	 0.116788
H	-0.8338676444	-0.4961894485	-0.3955984456	 0.085609
H	 1.3945898581	-1.5963512261	-0.6798463543	 0.110669
H	 2.2276648087	-0.0212504433	-0.2847593242	 0.126657
H	 0.2033790977	-1.5169806872	 1.5278596039	 0.09205
H	 0.4170049153	-0.6357248177	 4.171793598	 0.103268
H	 2.0381424532	 1.2558470273	 5.3186838165	 0.108332
H	 3.2757016368	 2.4649963498	 3.1829665233	 0.128897
