18
gdb 91594	2.83725	1.17543	0.97653	2.3579	72.83	-0.2442	-0.0245	0.2197	1231.3561	0.145952	-439.040164	-439.031247	-439.030303	-439.074727	32.375	
O	 0.1289663143	 1.4723996091	 0.1353402853	-0.431044
C	 0.1140639481	 0.0635501231	 0.15924728	 0.035514
C	 0.1383856832	-0.6934145354	 1.5193826187	-0.199286
N	-1.1862076015	-1.351434661	 1.2313649889	-0.174765
C	-2.1350980903	-0.2303269867	 1.1066338347	-0.281729
C	-1.2693808419	-0.5333560682	-0.0551294229	 0.335243
C	-1.7743204681	-1.0782688004	-1.3641868357	-0.394875
C	-2.2243649678	 0.0363882762	-2.2928958548	 0.16862
O	-1.8400334543	 0.1780618927	-3.4240045838	-0.238097
H	 1.0431191825	 1.7730473548	 0.1270237846	 0.289413
H	 0.8431241423	-0.354470832	-0.546143951	 0.084863
H	 0.926993701	-1.4437058069	 1.6037612847	 0.111158
H	 0.1294548025	-0.0613332891	 2.4127526046	 0.109956
H	-3.1696119726	-0.5552190964	 1.0480017932	 0.120647
H	-1.9711177109	 0.673549495	 1.6876005864	 0.129021
H	-1.0165776131	-1.6772194879	-1.8783089541	 0.121754
H	-2.6425176361	-1.7216690357	-1.1658977729	 0.132016
H	-2.9604126774	 0.7389264088	-1.840520306	 0.081592
