13
gdb 133599	2.74339	1.37922	1.12363	2.671	52.23	-0.2808	0.0072	0.288	1028.1201	0.085932	-584.248475	-584.240748	-584.239804	-584.281725	27.598	
F	-0.0020339605	 0.1044658995	-0.1515811688	-0.078495
C	 0.0089055899	 1.436516988	 0.0041316782	 0.285741
F	 1.2787887034	 1.8391885997	 0.0459020971	-0.058153
F	-0.5604568823	 1.9729416596	-1.0894584955	-0.080352
C	-0.7494123162	 1.8546581198	 1.2465604672	-0.289445
C	-2.1420480236	 1.2201552426	 1.4397362316	-0.102017
O	-1.6789736297	 0.5737155275	 2.6654117357	-0.247155
C	-0.4144011415	 1.1039080541	 2.5265269276	 0.437927
N	 0.6144023298	 0.992341517	 3.2266345497	-0.526529
H	-0.705474663	 2.940744644	 1.3347954448	 0.142649
H	-2.9597504829	 1.9133003937	 1.6430808393	 0.133665
H	-2.4344197955	 0.4805245733	 0.6925040196	 0.144127
H	 0.4599513322	 0.3864343411	 4.0340178336	 0.238037
