19
gdb 39035	3.05396	1.69686	1.26316	1.9217	80.7	-0.2317	0.0083	0.24	1028.3887	0.161596	-385.895442	-385.888396	-385.887452	-385.926611	29.061	
C	 0.1787563374	 1.4023984817	-0.4238603815	-0.20942
C	 1.4179093136	 2.0140575717	 0.2986049041	-0.341932
C	 2.1666494027	 0.7832036678	 0.7056060592	 0.338448
C	 3.4187852346	 0.3297618426	 0.7710630047	-0.265083
C	 3.4478580993	-1.1764914301	 1.0080321855	-0.284363
C	 1.9683572214	-1.5610816494	 1.08830827	-0.08284
O	 1.2824328113	-0.9733647633	 2.2036774307	-0.307307
C	 1.1851727697	-0.3274687127	 0.9185617011	 0.41899
C	-0.1520669185	 0.0835859432	 0.3332631891	-0.350604
H	-0.6705884395	 2.0893794017	-0.4554945241	 0.101927
H	 0.4511694739	 1.1716277157	-1.4593077019	 0.108159
H	 1.9840897765	 2.7015254542	-0.3348461575	 0.10855
H	 1.0888319942	 2.5766005315	 1.183178559	 0.11574
H	 4.3257437905	 0.9136446105	 0.6588310879	 0.093409
H	 3.9486671122	-1.698843083	 0.1822555696	 0.108271
H	 3.9782621319	-1.4546982785	 1.9272186687	 0.123824
H	 1.627523979	-2.5522196233	 0.8005413647	 0.093552
H	-0.8488795485	 0.2708126033	 1.1576969255	 0.121044
H	-0.6074872718	-0.6697771035	-0.3143737248	 0.109635
