27
gdb 99968	2.12989	1.24801	1.19819	1.078	91.75	-0.2458	0.0746	0.3204	1322.3015	0.247779	-390.693679	-390.681581	-390.680637	-390.730477	45.772	
C	 0.1398127016	 1.356907986	 0.0079820061	-0.243866
O	-0.0482691671	-0.0380032258	 0.0025895333	-0.283899
C	-1.3913026786	-0.5591173608	 0.0123519018	 0.376421
C	-2.1329715228	-0.0826845763	 1.2752672028	-0.442058
C	-2.1565660656	-0.0691426101	-1.2311522254	-0.442079
C	-1.1713980275	-2.1229680441	 0.0018336247	 0.267133
C	-0.3549899594	-2.5501866595	 1.2411756749	-0.416704
C	-2.5042260271	-2.8970312969	 0.0106751215	-0.42985
C	-0.3793624297	-2.5368018585	-1.2576981955	-0.416712
H	 1.2212055319	 1.5195607042	-0.000865641	 0.124358
H	-0.2865764808	 1.8500951536	-0.8766647192	 0.104396
H	-0.2706301703	 1.8410750377	 0.905067282	 0.104388
H	-2.3094781885	 0.9960107414	 1.2366106772	 0.11108
H	-3.1123364249	-0.5593578071	 1.361197583	 0.118146
H	-1.561298893	-0.2978928141	 2.180337456	 0.122556
H	-1.6021793997	-0.2747028527	-2.1491317671	 0.12256
H	-3.1375026375	-0.5448096321	-1.303625347	 0.118146
H	-2.3320210835	 1.0090883757	-1.177630396	 0.111084
H	-0.9148232417	-2.4089365694	 2.1705548688	 0.103473
H	-0.1073024224	-3.6146894497	 1.1726107646	 0.101055
H	 0.5755211461	-1.9841365739	 1.3117084371	 0.127573
H	-3.1190307288	-2.682680085	-0.8683907217	 0.109951
H	-2.2979414588	-3.9726747868	 0.0030517717	 0.110794
H	-3.101922191	-2.691954517	 0.9036473603	 0.109961
H	 0.5497529377	-1.9700824187	-1.3401879149	 0.12755
H	-0.1306896	-3.6020017587	-1.2054817284	 0.101062
H	-0.9571251387	-2.3854635115	-2.1744316595	 0.103482
