18
gdb 115225	4.23972	1.0265	0.86231	3.1857	69.54	-0.2394	0.0256	0.265	1314.653	0.148226	-476.248509	-476.239754	-476.23881	-476.282346	31.701	
C	 0.0046853849	 1.3817440625	-0.0320173094	-0.245817
O	 0.0757131821	-0.0368354076	-0.0208156669	-0.237253
C	 0.7037033866	-0.5622911691	 1.0891142224	 0.221089
C	 0.5602028576	-2.0787368856	 1.0323447806	-0.180436
N	 1.4051537916	-2.6773364137	 2.0539359066	-0.326662
C	 2.4906416525	-2.092841684	 2.6369107889	 0.382642
O	 3.1917164772	-2.6547267274	 3.4562779993	-0.372416
C	 2.74922429	-0.6404677798	 2.2338812454	-0.194093
O	 2.0795911452	-0.2242180781	 1.0583663428	-0.260842
H	 1.0026282207	 1.8302871676	-0.0621615135	 0.13679
H	-0.5494194659	 1.6598172619	-0.9301333367	 0.133691
H	-0.5311922709	 1.7570264192	 0.8521027748	 0.11008
H	 0.261461474	-0.164955517	 2.0261249347	 0.059125
H	-0.4842259563	-2.3570354513	 1.2053886307	 0.121386
H	 0.8405175564	-2.4045357611	 0.0225500031	 0.12962
H	 1.2599080398	-3.6440830302	 2.3062301083	 0.252547
H	 2.4787042738	-0.0080357713	 3.0956437322	 0.122256
H	 3.8202257708	-0.5242425649	 2.0592328669	 0.148294
