19
gdb 124865	3.53987	1.22891	1.19097	2.1572	81.24	-0.2368	0.0244	0.2611	1139.5477	0.160704	-382.081464	-382.073326	-382.072382	-382.114581	31.255	
C	-0.3009074095	 1.376564232	 0.5623994337	-0.441188
C	-0.019634835	-0.0143201252	 0.0314081986	 0.348152
C	 1.3159940093	-0.3392161442	-0.5900515017	-0.312286
C	 0.9417057677	-0.9146018664	 0.755830382	-0.279321
N	-1.1688576735	-0.658299444	-0.55499985	 0.008621
C	-1.5455783172	-0.6559319306	-1.8605103846	-0.031762
C	-2.7668595481	-1.2914265273	-1.9292015514	-0.24175
C	-3.0538687731	-1.6361132735	-0.5922927163	-0.005281
N	-2.0906276248	-1.2477005197	 0.2384675943	-0.263866
H	 0.5975596939	 1.8042671639	 1.016324582	 0.116606
H	-0.6302143792	 2.0450944464	-0.2401903213	 0.121591
H	-1.0877877314	 1.3377006309	 1.3213231745	 0.14375
H	 1.3340206886	-1.0153045392	-1.4367071735	 0.12395
H	 2.051718398	 0.4562826175	-0.6316323555	 0.118641
H	 1.4238170239	-0.5194017891	 1.6427977084	 0.11868
H	 0.6896590577	-1.966360808	 0.8051863766	 0.134904
H	-0.9205380435	-0.2141516877	-2.620047894	 0.129013
H	-3.3546670289	-1.4830778585	-2.81210587	 0.102349
H	-3.9169742249	-2.1557842073	-0.2018322319	 0.109197
