17
gdb 70051	3.56305	1.22124	1.01687	3.0983	77.28	-0.2282	-0.0647	0.1635	1175.7878	0.13568	-418.020354	-418.012093	-418.011149	-418.053024	31.235	
C	 0.2756380005	 1.4964373649	-0.0498052244	-0.492443
C	 0.1196232912	 0.0015784139	 0.0001706233	 0.345067
C	-1.0049137758	-0.6935660177	 0.7108267873	-0.328944
C	 0.4100705412	-0.950815047	 1.2040849376	-0.057481
N	 1.1116849237	-2.0869712743	 0.6944474449	-0.279115
C	 1.2023362401	-1.9193926951	-0.5864383875	 0.249446
N	 0.6507759025	-0.7711885916	-1.0937478577	-0.370047
C	 1.9095284577	-2.8685674676	-1.4695366918	 0.108712
O	 2.0523113771	-2.680672015	-2.6558413457	-0.275346
H	 1.320720096	 1.7832891495	-0.2081988762	 0.127859
H	-0.3275080388	 1.9342871947	-0.8541188879	 0.130111
H	-0.0600912545	 1.9430261608	 0.8898522324	 0.132943
H	-1.616197575	-0.083801856	 1.3672359383	 0.118572
H	-1.5304618324	-1.495125779	 0.2024866964	 0.122821
H	 0.676956	-0.6204215831	 2.2021787724	 0.099751
H	 0.9817416886	-0.370948167	-1.9570950979	 0.260777
H	 2.3187065079	-3.7503083502	-0.9408357934	 0.107316
