17
gdb 13242	4.30865	1.29902	1.05215	3.1552	68.62	-0.2759	0.0126	0.2885	1101.9704	0.142171	-363.852255	-363.844254	-363.843309	-363.885606	28.625	
N	 0.1564306127	-0.1932902069	 1.3274749903	-0.309693
C	-0.0262955785	 0.6064992502	 0.5139501966	 0.263426
C	-0.2668342144	 1.6276074915	-0.5280047041	-0.208163
O	 0.8962834817	 2.2713725486	-0.9712198833	-0.233299
C	 1.4647253737	 3.1833309327	-0.0478876786	 0.160604
C	 2.4283578632	 2.6633805037	 1.0544432289	-0.237311
C	 3.3372033514	 3.8850947268	 0.7433822312	-0.225949
C	 2.6168655421	 4.0223201171	-0.6275182543	-0.249538
H	-0.7102160132	 1.1310834543	-1.3968187759	 0.159674
H	-1.0068112394	 2.3435747491	-0.1365335797	 0.138748
H	 0.6720551246	 3.8161931354	 0.3789964041	 0.071799
H	 2.0405482228	 2.5420494971	 2.0671315985	 0.110493
H	 2.8907177135	 1.7262277072	 0.7341849553	 0.122017
H	 3.1271277173	 4.7312179542	 1.4028802058	 0.107509
H	 4.4149636115	 3.7165560314	 0.7273375302	 0.108239
H	 3.1287524735	 3.452224372	-1.4076410001	 0.119428
H	 2.3843517375	 5.0195677156	-1.0064155247	 0.102016
