21
gdb 113454	3.86658	0.95514	0.92879	1.7478	83.25	-0.2459	0.0916	0.3375	1382.7178	0.181588	-387.037332	-387.02856	-387.027616	-387.070986	33.702	
C	-0.0067404342	 1.5059809218	-0.2769896864	-0.371212
C	-0.0544037558	 0.0825234609	 0.2901789645	-0.196515
C	-1.4332806481	-0.5399583008	 0.2083474705	-0.048527
C	-1.8888494667	-1.2356300308	-1.0596223854	-0.365246
C	-1.6124030956	-2.0277044972	 0.1866553507	 0.348746
C	-0.567399565	-3.1669374735	 0.3435980106	-0.345941
C	-1.648268248	-3.9508662966	 1.1124059192	 0.036978
O	-2.0399708753	-3.15661211	 2.2366641821	-0.247486
C	-2.6220823037	-2.8585943571	 0.9559065563	-0.070524
H	 0.9995230683	 1.9300395421	-0.2020775297	 0.110047
H	-0.3023200995	 1.5197956845	-1.3313088325	 0.116544
H	-0.6889682795	 2.1692602846	 0.2660338555	 0.114549
H	 0.6612408538	-0.5513918845	-0.2485439986	 0.093865
H	 0.2761044317	 0.0926011545	 1.3369053952	 0.103422
H	-2.2039312837	 0.0144672796	 0.7413396726	 0.082077
H	-2.9196877806	-1.1182017093	-1.3798596647	 0.109434
H	-1.1774585737	-1.3176247851	-1.8768811651	 0.108523
H	-0.2957241216	-3.6272513169	-0.6103280773	 0.10679
H	 0.334745158	-2.9452750917	 0.9195209427	 0.111313
H	-1.7908571576	-5.0226752277	 1.1837216628	 0.103213
H	-3.7042049233	-2.8670901169	 0.885841147	 0.09995
