18
gdb 79413	2.77096	1.59638	1.24958	0.9656	78.25	-0.2168	-0.0273	0.1895	1043.0807	0.147395	-401.805237	-401.797456	-401.796511	-401.837553	30.18	
C	-0.2167599345	 1.6311474083	 0.1560559826	-0.420202
C	 0.0184149525	 0.1357972137	-0.0291420375	-0.145224
C	 0.5609010236	-0.6237155357	-1.303186236	-0.000436
N	 1.6528684065	-0.3825797964	-2.4289595255	-0.171453
C	 2.4395125344	 0.289496092	-1.3060960424	-0.179755
C	 1.8437038186	-0.9488162515	-0.568151061	 0.082101
C	 2.2773069254	-1.7004125228	-1.8790565156	-0.254253
C	 1.1905627087	-0.5794503547	 0.7963069898	 0.307286
O	 1.3889361184	-0.7307209443	 1.9589136741	-0.282242
H	 0.6696408946	 2.2396729545	-0.0319311006	 0.130917
H	-1.011302637	 1.9783670533	-0.511485784	 0.133408
H	-0.5336237663	 1.823162682	 1.1863724957	 0.138396
H	-0.9126524784	-0.3780212312	 0.2431465795	 0.118364
H	-0.1043808681	-1.4357511813	-1.6029973174	 0.085175
H	 3.5221936665	 0.2885816869	-1.4564878252	 0.108394
H	 2.085732922	 1.2882210654	-1.0592308194	 0.115724
H	 1.7153798812	-2.6001648599	-2.1373537502	 0.117694
H	 3.3389098719	-1.7915367884	-2.1211975369	 0.116106
