19
gdb 72237	2.4893	1.98308	1.35747	0.4396	74.45	-0.2165	0.0726	0.2891	985.5743	0.159378	-422.999164	-422.991256	-422.990312	-423.030908	31.784	
C	 0.0527844481	 1.4304553424	 0.0463865985	-0.486932
C	-0.0139111732	-0.0690226637	 0.0215289249	 0.380766
O	 0.9448029509	-0.6628233039	-0.8430904697	-0.307994
C	 0.3824057039	-1.8859230215	-1.3298528139	-0.083958
C	-0.7067119621	-2.2303253881	-0.315923115	-0.075198
C	-0.0894183181	-2.3180862763	 1.1202487653	-0.300513
C	-0.4048386804	-0.8336104611	 1.2844020701	 0.313556
O	-0.6764967475	-0.2070455356	 2.4891785012	-0.459538
C	-1.2986392495	-0.8388509714	 0.0437430193	-0.212196
H	 1.0571500453	 1.7644875016	 0.3290497242	 0.122845
H	-0.1714853127	 1.8446029889	-0.9411777811	 0.124804
H	-0.6593120427	 1.8322115306	 0.770567484	 0.133058
H	-0.0336739052	-1.7422268869	-2.3389217881	 0.089887
H	 1.1790718978	-2.635755639	-1.3821907384	 0.104185
H	-1.3843660444	-3.0293201509	-0.6132615091	 0.077715
H	-0.7122534202	-2.9184393725	 1.7881959421	 0.107425
H	 0.9554710756	-2.6397346655	 1.1979587337	 0.092215
H	 0.1559942466	 0.1021120057	 2.8641639943	 0.287399
H	-2.2925207322	-0.4521623028	-0.1401631822	 0.092472
