14
gdb 14088	3.79092	1.6625	1.39818	4.7098	58.45	-0.2686	0.0066	0.2752	880.9466	0.106683	-419.676387	-419.669136	-419.668191	-419.70802	26.43	
O	-0.0192975473	 1.3684697881	-0.0472512424	-0.417288
C	 0.029209713	-0.0208044709	 0.056032236	 0.04597
C	-0.4790721891	-0.6935385287	 1.3000977371	-0.382671
C	-1.31126937	-0.6935621087	 0.042094421	 0.106782
C	-2.6698541264	-0.0957562806	-0.2776608318	-0.139154
O	-2.9641291384	-1.2759076026	-1.1038552931	-0.255741
C	-1.7438505559	-1.8474963272	-0.8137318359	 0.42939
O	-1.3134163957	-2.8926940722	-1.1837491816	-0.342552
H	 0.7126579722	 1.7346975471	 0.4605613642	 0.297511
H	 0.8266736985	-0.5125804305	-0.5001743566	 0.116914
H	-0.0360619122	-1.6359192142	 1.6043716417	 0.141983
H	-0.8233199207	-0.0514756824	 2.1042714509	 0.130159
H	-3.3797876433	-0.0188756725	 0.5484870305	 0.126919
H	-2.6649457548	 0.8141597952	-0.8796163998	 0.141777
