17
gdb 55722	2.51103	1.2268	1.03864	3.4707	75.49	-0.2439	0.0395	0.2834	1217.3309	0.134668	-417.99552	-417.986194	-417.98525	-418.029906	35.018	
N	-0.0034214561	 1.318149148	-0.2387066007	-0.565886
C	-0.0047946503	 0.0116038915	 0.234280488	 0.440387
O	 0.8165087532	-0.4086183678	 1.0208801759	-0.37535
N	-1.0418687947	-0.7554469439	-0.2909416306	-0.408193
C	-1.028132256	-2.1870553877	-0.1371467015	 0.178425
C	-1.2601594263	-2.7157202286	 1.2624002645	-0.26252
C	-2.3583976426	-2.82538129	 0.2499278188	-0.314448
C	-0.1574787794	-2.917628178	-1.0252090261	 0.337407
C	 0.5521043504	-3.5129110558	-1.7924579725	-0.498244
H	 0.5893965269	 1.9250211396	 0.3071184425	 0.261461
H	-0.8898811175	 1.7283474476	-0.4919603309	 0.247794
H	-1.4205142348	-0.4334454312	-1.1709448074	 0.24087
H	-0.7145743088	-3.6087823755	 1.5391461015	 0.135134
H	-1.342299746	-1.9681640187	 2.0402170253	 0.138368
H	-3.2025182654	-2.1508514527	 0.3350899094	 0.119839
H	-2.5788576591	-3.7955190698	-0.1783382603	 0.129111
H	 1.1967507165	-4.0351098172	-2.4550232959	 0.195845
