14
gdb 127959	2.83311	1.39776	0.94154	4.9663	69.63	-0.2416	-0.0633	0.1783	1165.7654	0.100068	-466.161392	-466.152826	-466.151882	-466.195245	29.083	
C	 0.0398724374	 1.4190746154	 0.0074321214	-0.340491
N	 0.0436684719	-0.0346131031	 0.0114905163	-0.349582
C	-1.076408694	-0.6205476709	-0.0142783804	 0.578511
N	-2.3912486714	-0.1753653948	-0.0476624465	-0.337795
N	-3.2785791623	-1.2109186708	-0.0663340754	-0.038137
N	-2.64457635	-2.2981857914	-0.0478770589	-0.076094
N	-1.2932372881	-2.0109723842	-0.0157844037	-0.163415
C	-0.2997034368	-3.001498114	 0.0113447806	 0.181511
O	-0.5247939819	-4.1777419907	 0.0091649622	-0.262833
H	 1.0701034497	 1.77992756	 0.031589546	 0.140756
H	-0.4340862797	 1.8356382678	-0.8950957617	 0.114013
H	-0.4774851568	 1.8405275388	 0.8834749307	 0.114006
H	-2.73077678	 0.7699620994	-0.0582383147	 0.295947
H	 0.6940718419	-2.5280331716	 0.034283064	 0.143603
