17
gdb 132523	3.02158	1.33824	0.9382	3.1417	78.61	-0.2401	-0.0217	0.2184	1202.5358	0.135559	-426.056546	-426.048282	-426.047338	-426.089391	30.964	
C	 0.0053143807	 1.524710874	-0.0222856242	-0.502455
C	 0.0097277295	 0.0175384854	-0.0165275685	 0.239165
C	-0.006664893	-0.7119671145	-1.2056846424	-0.133382
C	-0.0023697717	-2.1003900185	-1.1853286181	-0.280022
C	 0.0187994941	-2.696818002	 0.0670527875	 0.328785
F	 0.0237745372	-4.0272612579	 0.1433817903	-0.077404
N	 0.0347425017	-2.053161843	 1.2111724517	-0.367224
C	 0.0305085373	-0.7124597336	 1.1852605206	 0.255939
C	 0.0492875341	-0.0198659	 2.5227830398	-0.482647
H	 0.8915182002	 1.935885957	 0.4750370502	 0.134072
H	-0.0122359368	 1.9115168152	-1.0443689524	 0.123851
H	-0.866755067	 1.9308508871	 0.5033396839	 0.134062
H	-0.0229588405	-0.1878745622	-2.1567191328	 0.106177
H	-0.0146673629	-2.6997810268	-2.086615435	 0.114319
H	 0.928074292	 0.6277543919	 2.6254067206	 0.130918
H	-0.8302695975	 0.6216980779	 2.6531866409	 0.130942
H	 0.0643968928	-0.7640371099	 3.3191877979	 0.144905
