18
gdb 70213	3.57423	1.31433	1.11866	3.6941	71.78	-0.2578	0.0044	0.2622	1109.102	0.148605	-439.108551	-439.100479	-439.099534	-439.141139	30.812	
C	 0.0646274489	 1.5623695708	-0.0564562104	-0.456571
C	 0.0211838984	 0.0555171302	 0.0437061493	 0.28923
C	-1.281987553	-0.5660880665	-0.4265046434	-0.142225
O	-1.2856055114	-1.9986290645	-0.4286286868	-0.225882
C	-0.7763171117	-2.7050458259	 0.616704447	 0.391108
O	-0.9519076576	-3.8900075821	 0.6610577582	-0.316539
C	 0.0245840517	-1.9332927575	 1.6555969065	-0.374704
C	 0.7063681533	-0.6900106896	 1.1240531362	-0.056315
N	 1.2772917484	-0.6546664003	-0.2373306713	-0.371227
H	 1.0250163248	 1.93425374	 0.306932254	 0.138602
H	-0.0512061971	 1.8895773312	-1.0958610697	 0.125947
H	-0.7340486923	 2.0236167157	 0.535294227	 0.11887
H	-2.111598844	-0.201626966	 0.195097844	 0.119227
H	-1.4972861365	-0.2861678572	-1.462303436	 0.131619
H	-0.6623463917	-1.6526641172	 2.4664303984	 0.141977
H	 0.7354385455	-2.6428008372	 2.0876997604	 0.148462
H	 1.2969470858	-0.1450819504	 1.8572658256	 0.098622
H	 1.0996340485	-1.5283614435	-0.7294955089	 0.239799
