14
gdb 130235	3.2694	1.42603	0.99414	2.5385	71.26	-0.2224	-0.0508	0.1716	1100.5539	0.102133	-470.002859	-469.995352	-469.994408	-470.034672	29.209	
N	 0.0895078648	 1.4133384347	 0.1546754096	-0.56083
C	 0.0291100851	 0.0413295366	-0.0358168325	 0.41983
N	-1.1622614038	-0.4666874525	-0.154140715	-0.209875
O	-1.2176112911	-1.8510373558	-0.4682897715	-0.273613
C	-0.1238413245	-2.6286084494	-0.5590968086	 0.367267
N	-0.1493950311	-3.8812344322	-0.80519863	-0.587083
C	 1.1935480305	-2.0070755862	-0.3787021681	 0.36186
O	 2.2277206505	-2.8328672601	-0.4926908769	-0.405228
C	 1.2702963112	-0.685457535	-0.1328668548	-0.307657
H	 0.8180122223	 1.7234273302	 0.781666247	 0.257746
H	-0.8103371216	 1.8231807231	 0.3678910506	 0.263373
H	-1.0924497158	-4.2449944309	-0.9234555562	 0.238287
H	 1.8217489719	-3.7066157862	-0.6827338343	 0.315233
H	 2.2184665316	-0.1741765464	-0.0255183394	 0.120688
