18
gdb 128420	4.76709	0.90044	0.83272	4.3117	74.17	-0.2109	0.03	0.2409	1412.6285	0.15022	-431.463559	-431.454486	-431.453542	-431.497923	32.953	
C	-1.0107329759	 0.7450666456	-0.9396976707	-0.310511
N	-0.0144608285	 0.3536666834	 0.0541543087	-0.265658
C	-0.5127610407	-0.5805316899	 1.0513881219	-0.276713
C	-0.8043835707	-1.9790483609	 0.5651762136	 0.345565
N	-0.2957625793	-2.4572613892	-0.5540540797	-0.286959
N	-0.778680503	-3.741965498	-0.5612281343	-0.249525
C	-1.5378015404	-3.9526493806	 0.5359418975	 0.409653
N	-2.2255400331	-5.1243210699	 0.782969686	-0.599593
N	-1.5739309245	-2.8619752573	 1.2780489632	-0.364196
H	-0.5471475918	 1.4213625772	-1.6643332767	 0.112254
H	-1.4597054107	-0.0955727537	-1.4913406316	 0.106723
H	-1.817753347	 1.29638401	-0.4431089741	 0.114802
H	 0.775305371	-0.0719655816	-0.4205574968	 0.226396
H	 0.2171811108	-0.6472783994	 1.8696329828	 0.1172
H	-1.4274461055	-0.1756298827	 1.4994684368	 0.123186
H	-0.6166253861	-4.3363372261	-1.3558878771	 0.27185
H	-1.7250644043	-5.9734018391	 0.5593322484	 0.255281
H	-2.5864930604	-5.1429901877	 1.726975942	 0.270246
