19
gdb 111448	2.86928	1.50913	1.19624	2.9953	73.62	-0.2288	0.0593	0.2881	1067.674	0.161809	-419.143856	-419.136074	-419.13513	-419.17633	30.732	
O	 0.1173517861	 1.3456930834	-0.1512864359	-0.430015
C	 0.0205191197	-0.0609092713	 0.0390054023	-0.076259
C	-1.4349555621	-0.5440031398	 0.0791542526	-0.010348
C	-2.248969288	-0.1456369663	-1.1622510605	-0.078247
N	-1.6896374414	-0.6193090972	-2.4478072203	-0.322087
C	-2.7928994197	-1.36903876	-1.8091981353	-0.040189
C	-2.3702023539	-2.5667065786	-0.9832351403	-0.04352
N	-0.9153404977	-2.8107409559	-0.9359949483	-0.311199
C	-1.5651640021	-2.0719063778	 0.1669730566	-0.07577
H	-0.0472633098	 1.5105203982	-1.0846645103	 0.286635
H	 0.5506924229	-0.6124818933	-0.744552393	 0.129871
H	 0.5096105389	-0.273660126	 0.9959942111	 0.097355
H	-1.9295972796	-0.1030585092	 0.9530449037	 0.075775
H	-2.7975021876	 0.7909406244	-1.1480165552	 0.089018
H	-2.0789804224	-0.0577712233	-3.2025263715	 0.227736
H	-3.7643383842	-1.3859400799	-2.2914226602	 0.083761
H	-3.0527570109	-3.405155195	-0.8948746746	 0.083581
H	-0.7520078104	-3.7704252525	-0.6395654845	 0.228793
H	-1.6113270278	-2.5390125198	 1.1463171636	 0.085109
