17
gdb 126064	3.77759	1.1159	1.07958	2.7836	75.04	-0.2351	0.0128	0.2479	1175.4882	0.137705	-418.012396	-418.004516	-418.003572	-418.04528	29.417	
C	 0.0114003336	 1.51078866	-0.2575319849	-0.432975
C	 0.0337813091	 0.0292560442	 0.0015409283	 0.090544
O	 1.3070245706	-0.6308444066	 0.0260157121	-0.267201
C	 0.5487171374	-0.5942417961	 1.2431739391	-0.087098
C	 1.1650562685	 0.1625692242	 2.3505604002	 0.384985
C	 0.8047707648	 0.3561034273	 3.6716519756	-0.327877
C	 1.8308400707	 1.1654142404	 4.2038371456	 0.000064
N	 2.7633563711	 1.4502351817	 3.2980488557	-0.229485
N	 2.3307688343	 0.8367064126	 2.1815634697	-0.235228
H	 0.7325076768	 2.0425571559	 0.3663143526	 0.137858
H	 0.2414663392	 1.7147676491	-1.3083437829	 0.133424
H	-0.9866129728	 1.9106592787	-0.0495975212	 0.130505
H	-0.7275208306	-0.5424155373	-0.5329314614	 0.098216
H	 0.1122936282	-1.5502518658	 1.5337863687	 0.108864
H	-0.0703545034	-0.0277158742	 4.1705318766	 0.103062
H	 1.9277807459	 1.54850465	 5.2091591512	 0.112804
H	 2.8877613665	 0.8399004059	 1.342727815	 0.279537
