14
gdb 108751	2.57119	1.3427	0.8869	2.7411	66.79	-0.2662	-0.0869	0.1793	1204.6593	0.100871	-473.894718	-473.886495	-473.885551	-473.928051	29.404	
O	 0.0091127839	 1.4120115627	 0.0075512274	-0.415471
C	-0.0119006984	 0.0010190867	 0.0023269803	-0.168468
C	-1.4255356612	-0.4599001483	 0.0120166656	 0.188893
C	-2.5635926137	 0.240759826	 0.0231708666	-0.338464
C	-3.7209206863	-0.7080238727	 0.0291487086	 0.447756
O	-4.9011506618	-0.4657752716	 0.0395255035	-0.336937
N	-3.1497045162	-1.9884692918	 0.0209668392	-0.410771
C	-1.7627247858	-1.9293739375	 0.0100991032	 0.395157
O	-0.9950235291	-2.861418198	 0.0014161372	-0.342788
H	 0.9259706526	 1.7011190588	 0.0009790865	 0.298507
H	 0.4899803517	-0.4229892507	-0.8835334226	 0.126508
H	 0.504300609	-0.4297897497	 0.8765864243	 0.126523
H	-2.689335569	 1.3126769946	 0.027602125	 0.154683
H	-3.6820161658	-2.8436042385	 0.0227877053	 0.274871
