23
gdb 110372	3.49719	1.06262	1.01073	0.1702	88.95	-0.23	0.0867	0.3167	1337.1337	0.206902	-351.106999	-351.098564	-351.09762	-351.13996	33.797	
C	-0.2454887774	 1.4408191312	 0.1743442617	-0.373981
C	 0.2442262574	 0.002016232	-0.0259520303	-0.212153
C	 0.8633002401	-0.5917640644	 1.226623342	 0.001969
C	-0.0739736661	-1.2373090939	 2.2120333656	-0.065634
C	 0.8721817936	-2.0901252637	 1.3485079683	-0.087458
C	 1.5933418912	-2.5928356239	 2.6208313913	-0.024954
C	 2.8176742707	-1.800833068	 3.1748633983	-0.241998
C	 1.853632252	-0.9335766924	 4.0525376046	-0.240796
C	 0.6353292063	-1.7308365998	 3.4938365307	-0.024339
H	 0.5779750813	 2.0992793421	 0.4720863774	 0.11317
H	-0.6784093417	 1.8450720385	-0.7460845843	 0.109259
H	-1.0083747305	 1.4916894549	 0.9579678391	 0.117274
H	-0.5924247654	-0.6301656421	-0.3505117974	 0.093692
H	 0.9796254446	-0.0250336705	-0.8406293276	 0.095188
H	 1.7135622051	-0.0215429684	 1.595432695	 0.075687
H	-1.1467262917	-1.1045149252	 2.1182851979	 0.076083
H	 0.636245028	-2.7120677574	 0.4915086148	 0.076145
H	 1.6167505741	-3.6785685236	 2.7197272095	 0.063184
H	 3.497218722	-2.4200105363	 3.7657696819	 0.09501
H	 3.4118705504	-1.2616789038	 2.4323285999	 0.098467
H	 2.0036783375	-1.0758542567	 5.1256282312	 0.09491
H	 1.8529164565	 0.1409959619	 3.8509931829	 0.09846
H	-0.0302610577	-2.1965449204	 4.2213530078	 0.062815
