20
gdb 67292	3.06673	1.59696	1.3339	1.6301	84.39	-0.2214	0.0872	0.3085	1041.9118	0.17081	-365.899386	-365.891599	-365.890654	-365.931159	31.554	
C	-0.0514825631	 1.4931027191	 0.0277122363	-0.527962
C	-0.0542205334	-0.0024234238	-0.0634358033	 0.261145
C	 0.8561100923	-0.9493781763	-0.9255105322	-0.098092
C	 1.9186775043	-0.9066631857	 0.1636246962	-0.202553
N	 0.6541537443	-0.9001297529	 1.0177778428	-0.189437
C	-0.0152170847	-1.861378853	-0.0100170116	-0.120126
C	-1.2289953027	-0.9665041628	-0.1152267266	 0.401617
C	-2.5543693061	-0.9732016591	 0.5637437311	-0.342036
C	-2.4597369179	-1.0155109039	-0.9574836744	-0.359747
H	 0.9674402232	 1.8867598851	 0.0993214703	 0.128109
H	-0.5218716688	 1.934369593	-0.8577590575	 0.124556
H	-0.6053176749	 1.8237206639	 0.9122956329	 0.134142
H	 0.9427466282	-0.9813159729	-2.0174886288	 0.062853
H	 2.5367326258	-1.7979978759	 0.3144355217	 0.097574
H	 2.5284108897	-0.003357623	 0.2684947653	 0.097038
H	 0.058554983	-2.9424479854	 0.1204286903	 0.077807
H	-2.8677798795	-1.8753551603	 1.0790280749	 0.116147
H	-2.9057533477	-0.0548190853	 1.0234073465	 0.113753
H	-2.7493824907	-0.1255172377	-1.5078409262	 0.111605
H	-2.7115606416	-1.945943443	-1.4566891377	 0.113608
