20
gdb 88789	2.82509	1.29536	1.07241	1.4478	80.66	-0.2149	-0.025	0.19	1205.4233	0.169931	-403.125077	-403.116206	-403.115262	-403.158804	33.52	
C	-0.8823789117	 1.3864836115	 0.60988752	-0.433749
C	-0.7659635195	-0.107602336	 0.8130782596	 0.030275
C	 0.3752900298	-0.8766090644	 0.2336844522	-0.268533
N	 0.2454252805	-0.7098467601	 1.6825079976	-0.109245
C	 1.1844681297	 0.084041332	 2.4339671588	-0.034702
C	 2.2981448312	-0.6840656707	 3.2198799606	-0.247631
C	 3.327233501	 0.4310639314	 2.8829325967	-0.33156
C	 2.3373957207	 0.9318876131	 1.8201633901	 0.375329
O	 2.4566846382	 1.5854190781	 0.8209724316	-0.307999
H	 0.0948088088	 1.8487608467	 0.4513504394	 0.157091
H	-1.5061468208	 1.5933654433	-0.2664128165	 0.119703
H	-1.3635013903	 1.8656065163	 1.4708598657	 0.113691
H	-1.7241286014	-0.6214349106	 0.888470768	 0.088338
H	 0.2351100812	-1.8910047771	-0.1316773494	 0.110162
H	 1.1366952407	-0.3007334991	-0.2857837838	 0.135009
H	 0.6279992098	 0.7278907922	 3.128458062	 0.107682
H	 2.0960025794	-0.8733056465	 4.2740250251	 0.111475
H	 2.5363285143	-1.6267249948	 2.7229402098	 0.121667
H	 3.4589755604	 1.1638624021	 3.6854320344	 0.131712
H	 4.3118923778	 0.1361068726	 2.5142879181	 0.131284
