19
gdb 39446	2.48595	1.91677	1.33372	1.0788	74.44	-0.253	0.0675	0.3205	995.5844	0.161457	-422.998289	-422.991167	-422.990223	-423.029587	29.046	
C	 0.0374595169	 1.5581225333	-0.0904000974	-0.237554
C	 1.5951731528	 1.4985323182	 0.0229046058	-0.327484
C	 1.3830134692	 0.1378030957	 0.6719397007	 0.456403
O	 2.2765450926	-0.9135816096	 0.9514874338	-0.309206
C	 1.6233582783	-0.2494560894	 2.0611619401	-0.076492
C	 0.4783897501	-0.9727939322	 2.7532222487	-0.109209
O	-0.7830186649	-0.4488141448	 2.3532862567	-0.244379
C	-1.0443078841	-0.6723615361	 0.9772581511	-0.114394
C	-0.0140685132	 0.0041215422	 0.0710524341	-0.078808
H	-0.4095279559	 2.0592506958	 0.7715972983	 0.117988
H	-0.3786813534	 1.9718873278	-1.0097530296	 0.103751
H	 2.0652468961	 1.41087275	-0.9614119118	 0.113278
H	 2.1073528717	 2.2713861116	 0.6000512789	 0.106495
H	 2.3011206279	 0.3390223309	 2.6766784437	 0.099131
H	 0.5386156172	-2.0500167817	 2.5312034742	 0.104425
H	 0.5270483569	-0.8359792903	 3.8364474816	 0.111121
H	-1.0558507419	-1.756732414	 0.7750242447	 0.09303
H	-2.0505045739	-0.2838563278	 0.7911305571	 0.109985
H	 0.011757588	-0.4828042496	-0.9094940008	 0.081921
