20
gdb 98542	3.47564	1.11827	0.93864	3.3377	81.91	-0.2388	0.0302	0.269	1311.1372	0.17138	-403.15809	-403.148925	-403.147981	-403.192504	33.708	
C	-0.1999694163	 1.4453444089	-0.1211072297	-0.334194
N	-0.2102716823	 0.0084165959	-0.3055286262	-0.329297
C	 0.8279060834	-0.6634333968	-0.8878414222	 0.309567
O	 1.8216993472	-0.1024101104	-1.3267204509	-0.399178
C	 0.6586652359	-2.1404162804	-0.9630950324	 0.26629
C	 1.8883133997	-3.0198903479	-0.9124172775	-0.308249
C	 1.0709553786	-3.0288117792	-2.1575411348	-0.075154
C	-0.1881274551	-3.8827986008	-1.96898897	-0.223759
C	-0.6072919279	-2.9875948005	-0.7549256471	-0.327593
H	 0.6984398476	 1.8255915457	-0.60866062	 0.171785
H	-1.0814487758	 1.9109533231	-0.5758281443	 0.121726
H	-0.170101365	 1.7172311057	 0.9407287662	 0.122497
H	-0.9687145365	-0.5252032489	 0.0839202224	 0.245621
H	 2.8157773377	-2.4619811562	-0.969163144	 0.142141
H	 1.895822733	-3.883178351	-0.2501679424	 0.102065
H	 1.4729387149	-2.6848558146	-3.1021096972	 0.105653
H	-0.8922619928	-3.805551429	-2.7995038915	 0.108433
H	-0.0131631234	-4.9423377703	-1.7563014345	 0.101542
H	-0.7013154385	-3.4822331631	 0.2177184349	 0.098333
H	-1.5327409944	-2.4429831203	-0.9614461586	 0.101771
