22
gdb 88669	4.14547	0.81983	0.74574	0.7891	83.46	-0.223	0.0766	0.2997	1570.7939	0.193601	-404.299647	-404.290191	-404.289247	-404.334375	35.751	
C	 2.8148938078	-0.6751018357	 0.2890915835	-0.312048
N	 1.5376523311	-1.3331955039	 0.5192353488	-0.085623
C	 1.4674271543	-2.3307121465	 1.5791513121	-0.262177
C	 0.7569614579	-1.0245207234	 1.7200442582	 0.00661
C	 1.1687260344	-0.0121169026	 2.7562409715	 0.027579
C	 0.7599811131	 1.477738391	 2.5518876899	-0.287852
C	 0.4834923779	 1.5551772494	 4.0758285225	 0.171768
O	-0.5627150161	 2.3489669707	 4.570893	-0.431879
C	 0.375146998	 0.0073511785	 4.0968158438	-0.292316
H	 3.444224047	-0.5596567305	 1.1854247544	 0.09906
H	 3.3816678233	-1.2623369436	-0.4406851499	 0.123392
H	 2.640989328	 0.3177553555	-0.138313556	 0.123443
H	 0.92642366	-3.2449155944	 1.3473058925	 0.111953
H	 2.3518613367	-2.474773104	 2.2009751023	 0.101102
H	-0.3162286862	-1.0140163978	 1.520675473	 0.077773
H	 2.2392249494	-0.082582978	 2.9655020336	 0.072607
H	 1.4834694018	 2.1688719078	 2.1133730742	 0.102017
H	-0.1782662482	 1.5451652874	 1.9870238552	 0.092214
H	 1.3775683156	 1.8852343657	 4.6138808719	 0.093026
H	-1.3706619346	 2.0968285534	 4.1112979469	 0.275508
H	-0.6640918392	-0.305213903	 3.9352664183	 0.09128
H	 0.776234918	-0.537377986	 4.9543774033	 0.102564
