16
gdb 62533	2.44253	1.42696	1.18446	3.1137	71.1	-0.2638	-0.0099	0.2539	1088.9634	0.123613	-434.06896	-434.05999	-434.059046	-434.102597	32.698	
C	-0.0633381966	 1.5120394538	-0.1101913041	-0.436468
C	-0.0391170135	-0.0084848874	 0.0114296472	 0.14025
N	-1.3813210433	-0.525592348	 0.0902230638	-0.542422
C	 0.8903680186	-0.707341537	-1.0523436614	-0.05894
O	 1.8545512342	-1.0261417182	-0.0077776308	-0.260369
C	 1.0326237053	-0.5111577264	 0.9871349472	 0.410428
N	 1.1617861978	-0.5013863051	 2.2294392684	-0.541935
C	 0.3636769542	-1.9083832744	-1.6892944109	 0.312442
N	-0.066993955	-2.8589526973	-2.1849209893	-0.319218
H	 0.9408732532	 1.9162779909	-0.2617953277	 0.134258
H	-0.7027713195	 1.8081198658	-0.9461367559	 0.142178
H	-0.461543322	 1.9481491107	 0.8109842299	 0.143967
H	-1.3920182483	-1.5147477613	 0.3189163188	 0.250759
H	-1.9002092988	-0.0418734258	 0.8158170363	 0.246625
H	 1.3280559201	-0.0426097409	-1.8009760066	 0.139242
H	 2.0218189837	-0.9572759293	 2.5380553651	 0.239204
