12
gdb 21652	7.45929	1.3476	1.14251	2.0185	61.09	-0.2304	-0.0754	0.155	950.0137	0.086185	-410.879179	-410.872426	-410.871482	-410.91011	24.515	
N	-0.3650027838	 1.3168635234	 0.4133846013	-0.584746
C	-0.0457009472	 0.0119067667	 0.1230143944	 0.40167
N	-0.9131932652	-0.8273224586	-0.4592660726	-0.268944
N	-0.2110037897	-1.9778894609	-0.4823834928	-0.215609
C	 1.008728975	-1.801846055	 0.0581905995	 0.268051
C	 1.991234057	-2.8835449587	 0.1625016723	 0.091719
O	 1.7706235248	-4.0078838283	-0.2310026528	-0.280564
N	 1.1494193987	-0.5402333446	 0.4551391973	-0.346549
H	 0.436730223	 1.9227746974	 0.4993650714	 0.264938
H	-1.1069587709	 1.7016311915	-0.1515764706	 0.263691
H	-0.598599366	-2.8241963678	-0.8684330003	 0.296077
H	 2.9482418744	-2.5846414651	 0.630160813	 0.110265
