18
gdb 16773	4.12086	1.55868	1.40168	2.6487	66.65	-0.2374	0.0821	0.3195	939.6587	0.155144	-384.922971	-384.915631	-384.914687	-384.954911	28.243	
O	 0.1226614762	 1.1608524511	 0.4707841191	-0.423497
C	-0.0155108723	-0.2228741285	 0.2364811371	-0.060394
C	-1.435000413	-0.570862187	-0.2091526333	 0.100762
C	-1.7172448199	-2.0914734945	-0.3157373152	-0.279441
C	-2.7602469949	-2.3708402979	 0.7578250435	-0.059012
C	-2.3864494667	-2.0652521408	 2.1983964611	-0.322212
C	-3.1074848527	-1.0437244691	 1.3579835482	 0.114379
O	-2.3550261458	-0.0223893787	 0.7594094654	-0.286886
H	-0.6327662327	 1.4040546854	 1.0207773383	 0.289774
H	 0.6954789867	-0.493547607	-0.5527606888	 0.105071
H	 0.2444517428	-0.8137561355	 1.1315132122	 0.081588
H	-1.6324893929	-0.0525008704	-1.155332425	 0.08972
H	-2.11571152	-2.3443936372	-1.3018995103	 0.112179
H	-0.8002017682	-2.6750732934	-0.175154779	 0.109308
H	-3.514129847	-3.1238526099	 0.5618843635	 0.093607
H	-2.9544476521	-2.5681921965	 2.9743007913	 0.114665
H	-1.3450650566	-1.887505828	 2.4450969258	 0.119222
H	-4.1167583508	-0.7295481621	 1.5993416159	 0.101167
