18
gdb 61004	2.14946	1.56041	1.19067	2.215	74.32	-0.2414	-0.0382	0.2033	1114.8146	0.144233	-439.069073	-439.059611	-439.058667	-439.103658	33.461	
C	-0.0728245007	 1.4241327471	-0.5214143337	-0.406336
C	 0.1070381884	-0.0290571343	-0.0637106114	-0.057151
C	 1.051800979	-0.107762548	 1.1227140514	 0.178035
O	 0.8775865919	-0.7779116876	 2.1072964646	-0.254998
N	-1.1948952278	-0.5915076385	 0.2694760788	-0.075644
C	-1.909799221	-1.3549399411	-0.7249856009	-0.246735
C	-1.3439696501	-2.0420810888	 0.4862824543	-0.076107
C	-0.1959985739	-2.9744372145	 0.2928506927	 0.153208
O	 0.6030059458	-2.9060988752	-0.6137871284	-0.278741
H	 0.8969475769	 1.8836582792	-0.7357743294	 0.122894
H	-0.6727220835	 1.4609632096	-1.4343270894	 0.130898
H	-0.5825767126	 2.0104883251	 0.2478726167	 0.138247
H	 0.6229781885	-0.5920077873	-0.8615108471	 0.129074
H	 1.9738419714	 0.5042478766	 0.995657398	 0.082498
H	-2.9816673264	-1.1858324529	-0.7803225939	 0.126249
H	-1.4109844401	-1.5714474436	-1.6682606668	 0.135438
H	-1.9950361225	-2.2899806379	 1.3199134494	 0.10573
H	-0.1142053133	-3.765545568	 1.0671011153	 0.093439
