18
gdb 13532	2.76379	1.73494	1.19704	1.2618	73.45	-0.2562	0.0496	0.3059	1034.7253	0.15158	-347.753542	-347.74467	-347.743726	-347.78691	33.137	
C	 0.0005931067	 1.475597756	-0.1673406611	-0.397562
C	 0.0018639378	-0.0536930375	 0.0185721877	-0.164841
C	 0.7481165145	-0.4512287837	 1.2170971895	 0.32942
C	 1.3405594677	-0.7986240903	 2.2053362887	-0.49004
C	-1.4145222274	-0.6205516352	 0.0700966127	-0.025475
C	-2.0631741884	-1.1566958384	-1.1902079129	-0.321716
C	-1.6155712464	-2.1030544629	-0.1146711076	 0.109621
O	-0.5067453675	-2.9035675862	-0.4056152191	-0.426209
H	 1.0207902643	 1.8622381665	-0.2364080144	 0.124422
H	-0.5372608352	 1.7390249547	-1.0826637095	 0.1208
H	-0.4924336897	 1.9683990704	 0.6759788058	 0.12473
H	 0.5085435867	-0.5054992771	-0.8424109327	 0.11766
H	 1.8739404448	-1.0903365392	 3.0761100228	 0.197636
H	-2.0609877307	-0.1296810358	 0.7928288711	 0.088962
H	-3.1254969343	-1.001948367	-1.3414058375	 0.113089
H	-1.4675547854	-1.1489330872	-2.0971973625	 0.122595
H	-2.3846375336	-2.5880431531	 0.4861010098	 0.084539
H	 0.0702700461	-2.8895488538	 0.3679604893	 0.292367
