15
gdb 84194	3.78377	1.11207	0.88914	3.3422	79.43	-0.2199	-0.0396	0.1803	1240.3789	0.112043	-416.785948	-416.777575	-416.776631	-416.818901	31.732	
O	 0.1311900051	 1.4379972917	-0.0861072489	-0.433307
C	 0.0852440438	 0.0373137206	 0.0654522447	 0.071149
C	 0.6713864236	-0.4683684324	 1.3569177507	-0.263181
C	-0.2180407958	-1.2848363665	 1.9476516562	 0.231021
N	-1.4126090273	-1.3788761918	 1.1820198207	-0.408481
C	-1.3602059492	-0.4766824186	 0.1322837869	 0.344313
N	-2.2567706192	-0.041405969	-0.6553790815	-0.565392
C	-0.0982065372	-2.0338694574	 3.1408781553	 0.245333
C	-0.0332044088	-2.6723482189	 4.1593806838	-0.413628
H	-0.6381117662	 1.6596755363	-0.6307544158	 0.294912
H	 0.5878553729	-0.4575039928	-0.7862301979	 0.10185
H	 1.6740230608	-0.271696225	 1.7011479052	 0.121189
H	-2.2809155242	-1.6686627653	 1.6050031219	 0.254818
H	-3.1808145638	-0.429123659	-0.463939835	 0.214214
H	 0.0427436654	-3.2334401619	 5.0581773837	 0.205189
