18
gdb 74230	2.31472	1.58899	1.04324	6.2561	77.21	-0.2182	-0.0149	0.2033	1144.7951	0.149734	-439.131424	-439.123197	-439.122252	-439.164163	31.777	
N	 0.0196153354	 1.416881341	 0.0328707433	-0.556941
C	-0.0268655553	 0.0432866222	 0.081707884	 0.358334
C	-1.1966898623	-0.6377167548	 0.1647263391	-0.326131
C	-1.3321828809	-2.0965670201	 0.1953723427	 0.385475
O	-2.2740718613	-2.6890243718	-0.2691643529	-0.350729
O	-0.3157267627	-2.8323606064	 0.7667587546	-0.24013
C	 0.4441274281	-2.2367688825	 1.8226027245	-0.070789
C	 1.6533817125	-1.4509115179	 1.313484446	-0.210592
C	 1.3179670268	-0.6506376736	 0.039084792	-0.290289
H	 0.8204925338	 1.8421379816	-0.405645252	 0.256619
H	-0.8477446074	 1.9051750312	-0.1316471451	 0.258329
H	-2.1385368821	-0.1083456556	 0.0624978598	 0.090571
H	-0.2064594583	-1.5850518612	 2.4138391492	 0.116466
H	 0.7624436754	-3.0660100648	 2.4604780432	 0.116426
H	 1.9932725772	-0.7827415582	 2.1133253553	 0.108416
H	 2.4839820632	-2.1262868333	 1.083858719	 0.112417
H	 1.3110767694	-1.3430581678	-0.8077232731	 0.145701
H	 2.1115728283	 0.078589112	-0.1524015795	 0.096848
