16
gdb 22010	4.36501	1.02871	0.83686	2.2835	78.56	-0.2206	-0.0314	0.1891	1302.0894	0.125136	-434.051636	-434.043141	-434.042196	-434.085502	30.841	
C	-0.0248242653	 1.4855676893	-0.0499557116	-0.52866
C	-0.0176076115	-0.0191915747	 0.046564166	 0.276745
N	-0.0213476845	-0.6932236539	 1.140956746	-0.178305
O	-0.0330461741	 0.1155765178	 2.2773436115	-0.387949
C	-0.005546015	-0.8069335638	-1.1829582107	 0.366185
C	 0.0030718249	-2.1754200195	-1.4159576888	-0.302575
C	 0.0129262226	-2.304002252	-2.8144448852	-0.00343
N	 0.0106662273	-1.1190914231	-3.4273583218	-0.228366
N	-0.0004106333	-0.2311108336	-2.4196590503	-0.276028
H	 0.8617563416	 1.8411508548	-0.587315689	 0.139029
H	-0.9080860048	 1.8319495744	-0.5986756699	 0.139033
H	-0.0335175923	 1.9362158288	 0.9398810091	 0.168901
H	-0.0343434668	-0.5351136127	 2.9872850688	 0.311826
H	 0.0022308802	-2.9474870317	-0.6656334347	 0.118261
H	 0.0215569314	-3.2081020104	-3.4052742137	 0.114169
H	-0.0043284205	 0.7501618003	-2.6397845257	 0.271164
