15
gdb 11771	4.64468	1.75381	1.59732	5.0171	65.55	-0.2639	0.0133	0.2772	818.7848	0.120903	-362.650529	-362.644294	-362.64335	-362.680751	24.666	
N	-0.0211432235	-1.1360069791	-0.056551616	-0.337897
C	-0.0129302296	 0.018819465	-0.0323498972	 0.204139
C	 0.0428486386	 1.464202194	 0.0508623486	 0.346792
C	-0.2616176347	 2.2623687803	 1.3500346651	-0.264012
C	 0.4117917303	 3.389916564	 0.5050854374	-0.099769
C	 1.3632015354	 2.2798674186	-0.0439042088	-0.264007
C	-0.5845120985	 3.4897350481	-0.6549897851	-0.075256
O	-0.8053693608	 2.0818199457	-0.9300889026	-0.314298
H	-1.3145865664	 2.3631132198	 1.6191990929	 0.119492
H	 0.3409875623	 1.9447409847	 2.2008116235	 0.123647
H	 0.7803617082	 4.3134870525	 0.9462981726	 0.091197
H	 2.1163742268	 1.9638468988	 0.677696093	 0.123647
H	 1.7880164066	 2.396527474	-1.0425363263	 0.119493
H	-1.532080008	 3.9655266638	-0.3811812466	 0.113415
H	-0.1757742567	 3.9801234096	-1.5447576106	 0.113415
