17
gdb 16160	4.4879	1.6632	1.42933	1.3111	67.56	-0.2428	0.0171	0.2599	911.9846	0.142992	-363.864647	-363.857445	-363.856501	-363.896078	27.52	
C	 0.0044555634	 1.5277624318	 0.2170514096	-0.372191
C	-0.0035956727	 0.032234425	-0.11930281	-0.271176
C	-1.3914195117	-0.5589185484	-0.0911372449	 0.34628
C	-2.062420192	-0.9882890131	 1.2029448139	-0.351712
C	-1.7714006073	-2.0134096565	 0.1440196534	 0.006445
O	-2.8246154582	-2.2870848756	-0.7716165186	-0.214299
C	-3.0490241532	-1.1038542777	-1.4020610442	 0.094124
N	-2.3161405303	-0.1051318062	-1.1182433734	-0.30111
H	 1.0181142902	 1.9360818058	 0.1642097897	 0.107996
H	-0.626686526	 2.0801611992	-0.4841830218	 0.140997
H	-0.3803476211	 1.7058581753	 1.2266479466	 0.114187
H	 0.4277255735	-0.1271658054	-1.1149714665	 0.10591
H	 0.6284631134	-0.5170467609	 0.5890721552	 0.093428
H	-1.4310237253	-1.032989213	 2.0843352191	 0.119991
H	-3.0910855457	-0.6940977338	 1.3829382069	 0.123953
H	-1.1120517754	-2.8585635679	 0.2942116615	 0.113944
H	-3.8594212617	-1.1195682485	-2.1205334264	 0.143234
