19
gdb 86601	3.6225	1.01854	0.84444	3.089	78.71	-0.2391	0.0298	0.2689	1381.2655	0.159807	-419.19851	-419.189391	-419.188447	-419.233283	32.304	
C	-0.1228214695	 1.4604146118	-0.0084992161	-0.344232
N	-0.0225055296	 0.0259667506	-0.0595924997	-0.070277
C	-1.0315136789	-1.034178258	-0.0564895163	-0.199889
C	 0.1424871437	-2.0643942455	-0.110790215	-0.177533
C	 0.2319810666	-2.9577575773	-1.3155612491	 0.034974
C	 1.0773319522	-4.174851022	-1.2829908076	-0.239726
N	-0.3920967683	-4.2939035	-1.3156767798	-0.329662
C	 1.0645507402	-0.808982622	-0.1129522502	 0.39648
O	 2.2485097585	-0.5969710204	-0.1509695449	-0.374679
H	 0.8926869103	 1.8634207856	-0.0257111347	 0.163151
H	-0.6754279409	 1.8569413745	-0.8691147845	 0.129859
H	-0.6219156779	 1.7972671842	 0.9085655079	 0.128639
H	-1.6466070387	-1.0638815114	 0.8502273146	 0.108752
H	-1.6828334993	-1.0336073485	-0.9382338138	 0.11593
H	 0.2491030081	-2.6459672493	 0.810854557	 0.092417
H	 0.1250984302	-2.4392597799	-2.2671137055	 0.096304
H	 1.5850310341	-4.5075633749	-2.1831856684	 0.125102
H	 1.6021648583	-4.4016022646	-0.3585758561	 0.117585
H	-0.7373646594	-4.5116950129	-0.3832044376	 0.226804
