15
gdb 49468	3.72269	1.15026	1.05225	3.8867	71.34	-0.2692	-0.0612	0.2079	1126.5678	0.11248	-416.771747	-416.76392	-416.762976	-416.804525	28.406	
O	-0.4925583062	 0.51719917	 0.7521932362	-0.266224
C	 0.0410779866	 1.1520497218	-0.1284998946	 0.142101
C	 1.2758673199	 1.9762827589	 0.0010336565	-0.0994
C	 1.5950318318	 2.8504121505	 1.1701700222	-0.049707
C	 1.1023470136	 2.2602935447	 2.5041789301	-0.180472
C	 2.0001806332	 1.0333192122	 2.1441822247	-0.173814
N	 2.4612989885	 1.6754369829	 0.8600485991	-0.136991
C	 1.5158629624	 3.0093021579	 3.6778756438	 0.273035
N	 1.8486235298	 3.6072814915	 4.6095147785	-0.315312
H	-0.3879136098	 1.1677663801	-1.1537290818	 0.101465
H	 1.6137936027	 2.3797597573	-0.9500724536	 0.121145
H	 1.9206113456	 3.8757135649	 1.0278954714	 0.13056
H	 0.0318534267	 2.0529623216	 2.5524743484	 0.154892
H	 2.863804656	 0.9300444868	 2.8009054328	 0.14683
H	 1.4837662393	 0.082580519	 2.0299314563	 0.151892
