19
gdb 9951	3.12909	1.47224	1.367	3.3397	73.49	-0.2285	-0.0185	0.21	1026.0134	0.162194	-365.048788	-365.039217	-365.038273	-365.082883	33.874	
C	 2.0053068023	-3.7554275759	 1.5516475519	-0.421549
C	 1.0266253918	-2.7738254756	 0.9438232335	-0.030194
N	-0.0149550944	-2.085149832	 1.6825480517	-0.1348
C	-0.1795046176	-2.2798203087	 3.1162772472	-0.317069
C	 1.1163038412	-1.2767575481	 1.1795869956	 0.185403
C	 2.1663772252	-0.6500962333	 2.0710018	-0.480995
C	 0.6968943678	-0.4293288042	 0.0169305889	 0.143209
O	 1.2656417572	 0.5688581066	-0.3491542285	-0.268404
H	 2.357944388	-3.4657264785	 2.5420610901	 0.12594
H	 1.5378920101	-4.7423590749	 1.6391180503	 0.130322
H	 2.8793341065	-3.8610428654	 0.9009723765	 0.132923
H	 0.6916383954	-3.0856490639	-0.0471527641	 0.091928
H	 0.7481906607	-2.3843574893	 3.6940565261	 0.106703
H	-0.7348247539	-1.4287532079	 3.5218086585	 0.131487
H	-0.7827884032	-3.1791076476	 3.275471339	 0.129414
H	 2.9264125725	-0.1820569096	 1.440758454	 0.14823
H	 1.7274163871	 0.1424376622	 2.6861649278	 0.130927
H	 2.6559984843	-1.3638772754	 2.7332398116	 0.117257
H	-0.210394991	-0.8161544083	-0.4982836899	 0.079269
