16
gdb 77340	3.10184	1.26609	0.94269	3.5085	71.37	-0.2567	0.0152	0.272	1184.5222	0.124224	-437.891955	-437.883449	-437.882504	-437.92517	31.875	
O	 0.1111893897	 1.3658011709	 0.2691463431	-0.438024
C	 0.0526402147	-0.0112170629	 0.0325138856	 0.037518
C	-1.3832266087	-0.5796264058	-0.0206116725	-0.193716
C	-1.2247478989	-1.8034901492	-0.972536783	-0.186675
N	-0.1300356876	-1.3912718582	-1.8391700563	-0.31996
C	 0.6019370963	-0.3538305464	-1.3583436417	 0.378997
O	 1.5094964954	 0.245056849	-1.8988223129	-0.395202
C	-1.9797179834	-0.9123857334	 1.2607761845	 0.307309
C	-2.4654428018	-1.2064065724	 2.3197785474	-0.436451
H	 0.8245092729	 1.6922595026	-0.3006499627	 0.296018
H	 0.6378081613	-0.5735063304	 0.7798334273	 0.101926
H	-1.9923604162	 0.1780014648	-0.5286709359	 0.127894
H	-0.9806566102	-2.7078058127	-0.4019877433	 0.127402
H	-2.1374380033	-1.9948643792	-1.5426365498	 0.131331
H	 0.0784303571	-1.8230865568	-2.7254641978	 0.260872
H	-2.8965879773	-1.45155213	 3.2588067379	 0.200762
