18
gdb 78736	3.35531	1.26476	1.22192	3.4713	77.24	-0.2487	-0.0274	0.2213	1098.3658	0.147332	-401.895793	-401.887916	-401.886972	-401.92823	30.204	
C	-0.067334767	 1.5805942436	-0.0296989408	-0.42199
C	 0.0801092979	 0.0720540189	-0.0677077686	 0.089968
C	 0.751908641	-0.6832004086	-1.2441778264	-0.106853
C	 2.1598757999	-0.0410698914	-1.3411944695	-0.310919
C	 2.3823676412	-0.577264993	 0.0691535087	 0.260168
C	 3.632528716	-0.6793877587	 0.836211134	 0.052051
O	 4.7096381815	-0.3425132557	 0.4043654283	-0.265501
C	 1.3142685449	-1.6191233402	-0.1090378068	-0.088581
N	 1.0846722904	-0.5507187555	 0.8716195448	-0.189723
H	 0.8780210026	 2.0990204012	-0.204984005	 0.129079
H	-0.7865446384	 1.9120122755	-0.7865265909	 0.121677
H	-0.4409790269	 1.8918156251	 0.9508316677	 0.133062
H	-0.8763703723	-0.4031545248	 0.174650015	 0.089782
H	 0.2033127989	-0.9763967634	-2.137102665	 0.080333
H	 2.7991454873	-0.5798134362	-2.0436197037	 0.124437
H	 2.2370224916	 1.0327984758	-1.5269500083	 0.108637
H	 3.5088158848	-1.101677482	 1.8563486974	 0.08389
H	 1.3002445264	-2.6796715306	 0.1071418492	 0.110482
