24
gdb 60471	5.50394	0.4672	0.44521	4.2926	91.43	-0.3098	0.0382	0.348	2458.7796	0.215743	-368.449021	-368.437715	-368.436771	-368.486806	39.954	
C	-0.0833854039	 1.5588843823	-0.1581964904	-0.381586
C	 0.0212616181	 0.0308330601	-0.0496436889	 0.040263
C	 0.73530132	-0.5480989351	-1.2788432532	-0.389222
C	 0.7266244223	-0.4231388767	 1.2417080453	-0.171488
C	-0.0069132467	-0.0747906266	 2.5422856154	-0.195577
C	 0.6950102875	-0.6376585314	 3.7823091691	-0.179018
C	-0.0503491965	-0.2800286545	 5.0838056061	-0.342438
C	 0.6051192228	-0.8140116384	 6.2758606833	 0.256349
N	 1.137230986	-1.2443625205	 7.2071067557	-0.305637
H	 0.9123395961	 2.0191157557	-0.1508705498	 0.111866
H	-0.5745339863	 1.8508058091	-1.0922335232	 0.112737
H	-0.6585840317	 1.9951123819	 0.6638044563	 0.111841
H	-1.0000936713	-0.3775907879	-0.0313855806	 0.070748
H	 1.764837627	-0.1760783552	-1.3447958143	 0.112772
H	 0.7796655711	-1.6415300297	-1.2374248011	 0.110278
H	 0.22257002	-0.2674203834	-2.2046224146	 0.110674
H	 0.8645724314	-1.5120648128	 1.1998723987	 0.092831
H	 1.7379259924	 0.0079888137	 1.2676482447	 0.093745
H	-0.0976804364	 1.0136993804	 2.6461732115	 0.101742
H	-1.0335125667	-0.4649319134	 2.4973954362	 0.097003
H	 0.776810488	-1.7278925958	 3.7065001827	 0.120107
H	 1.7196920758	-0.25340531	 3.8412821111	 0.120459
H	-0.1285236594	 0.8085164362	 5.1896983225	 0.150799
H	-1.0765053594	-0.6650134081	 5.0511068574	 0.150755
