18
gdb 90130	3.4641	1.52956	1.40166	1.3025	74.22	-0.2236	0.0091	0.2327	987.1521	0.148659	-401.908059	-401.900757	-401.899813	-401.939367	29.484	
C	-0.0868651281	 1.5891774483	 0.0389728089	-0.405872
C	 0.0463301294	 0.0742788957	 0.0016317946	-0.024405
C	 1.1226666693	-0.5794858368	-0.960329425	-0.314235
C	 1.7674505559	-1.2626103209	 0.2506081738	 0.301535
C	 2.191354276	-0.3482722177	 1.3566896945	-0.378354
C	 0.7269839428	-0.654531449	 1.1827848098	 0.221872
N	 0.1632630413	-1.7619812271	 1.927099099	-0.305378
C	 0.7927867618	-2.7887383985	 1.5053088247	 0.076998
O	 1.7376120113	-2.6569222814	 0.5117801831	-0.251356
H	 0.8761532379	 2.0769809085	 0.2249019521	 0.11474
H	-0.4715073123	 1.9707233797	-0.9130730383	 0.116022
H	-0.7761190281	 1.9003815661	 0.8306817136	 0.127016
H	-0.9302717071	-0.3831653846	-0.1767812117	 0.094101
H	 0.6837538027	-1.2961698634	-1.6560092883	 0.121185
H	 1.7692531069	 0.1064315841	-1.5171567116	 0.104837
H	 2.6680707191	-0.816582844	 2.2095262219	 0.134471
H	 2.5733971428	 0.6359576379	 1.1041998697	 0.122441
H	 0.6681179383	-3.803152677	 1.8665144692	 0.14438
