15
gdb 34763	3.90188	1.09257	1.00512	3.8337	76.1	-0.2552	0.0082	0.2634	1168.1639	0.112368	-379.5963	-379.588455	-379.587511	-379.628851	29.51	
C	 0.0010876098	-1.2177604581	 0.095776064	-0.442129
C	 0.0137926914	-0.0148928911	 0.0926478684	 0.346243
C	 0.0225731738	 1.4194801094	 0.077899378	-0.214436
C	 0.5306757046	 2.2464931712	 1.2036229323	-0.034677
C	 1.6631679531	 1.5234674353	 1.9502607285	-0.190882
C	 2.3841794041	 1.4878805657	 0.5610644785	-0.175876
N	 1.2635094159	 2.2303822697	-0.1118861164	-0.139013
C	 2.3347066386	 2.3124684085	 2.967473513	 0.270217
N	 2.8706056514	 2.9413075745	 3.7760415108	-0.317097
H	-0.0207760482	-2.2800375886	 0.0933738835	 0.211695
H	-0.7984349891	 1.8698281202	-0.4742624647	 0.136185
H	 0.0013623056	 3.1190410923	 1.571175965	 0.126031
H	 1.3823226398	 0.552118723	 2.3670684443	 0.141723
H	 3.2870977888	 2.0968729939	 0.5339580753	 0.146041
H	 2.5806579304	 0.4960687941	 0.1495957197	 0.135974
