15
gdb 2129	3.80994	2.94052	1.7118	3.1894	64.18	-0.2347	-0.0368	0.198	728.6143	0.125279	-308.569129	-308.562215	-308.56127	-308.600271	24.789	
C	-0.0228523219	 1.5186005888	 0.0418160231	-0.492642
C	-0.0035333683	 0.0271105758	-0.0334056245	 0.218064
C	-0.0517819337	-0.7763332718	-1.1052669592	-0.149111
C	-0.0096452868	-2.2469854659	-0.7708518538	-0.263947
C	 0.0786222266	-2.277645897	 0.767117023	-0.326545
C	 0.0795318449	-0.8041571302	 1.197790727	 0.330566
O	 0.1372676104	-0.3891352037	 2.3332343891	-0.329593
H	 0.8768947658	 1.8896279632	 0.5446302465	 0.142557
H	-0.0861594458	 1.9768984956	-0.9482403893	 0.119056
H	-0.8713407528	 1.8619818023	 0.6436304218	 0.142562
H	-0.1156461661	-0.4299091934	-2.1325950469	 0.10486
H	-0.9000635276	-2.7621257746	-1.1517438622	 0.118999
H	 0.8472020193	-2.7348549973	-1.2515523608	 0.118981
H	-0.7652392256	-2.7920355723	 1.2360357496	 0.133089
H	 0.9865909816	-2.7636608396	 1.1358883765	 0.133103
