25
gdb 103769	3.04999	1.06647	0.93676	0.1144	93.6	-0.2455	0.0833	0.3288	1421.1179	0.227958	-352.343516	-352.33334	-352.332395	-352.378447	38.836	
C	 0.1949424961	 1.4460194991	 0.2853957405	-0.380085
C	-0.1934987288	 0.034954193	-0.175067045	-0.243054
C	 0.6029853097	-0.4774077376	-1.3676269795	 0.295427
C	 0.4043641761	 0.2888365793	-2.6630041549	-0.465624
C	 1.9774864887	-1.0601577148	-1.0951208126	-0.392436
C	 0.831637453	-1.9637299413	-1.4674971423	 0.335388
C	 0.267915486	-3.0938379999	-0.5893661054	-0.29193
C	 0.5382418729	-4.0792880022	-1.7639600683	-0.213485
C	 0.7793731859	-2.8672967875	-2.7109641062	-0.293811
H	 1.2594157119	 1.4972747692	 0.5383324513	 0.116001
H	 0.0016839975	 2.1942658159	-0.4896161619	 0.115982
H	-0.3757080984	 1.7381062523	 1.1726850389	 0.108245
H	-0.0668800205	-0.6594288134	 0.66370246	 0.094774
H	-1.2641233039	 0.0164606403	-0.4235287794	 0.089185
H	 0.7377795968	 1.3285452115	-2.5738926877	 0.115719
H	 0.9658213839	-0.1646507816	-3.485037468	 0.114365
H	-0.6534407776	 0.304745116	-2.9539250779	 0.109375
H	 2.7615127717	-0.8982145242	-1.8297448907	 0.100789
H	 2.3305379873	-1.082363216	-0.0674144018	 0.101203
H	 0.7864241008	-3.2982821518	 0.3514971182	 0.095329
H	-0.7995790079	-2.9758201801	-0.3747231697	 0.097621
H	 1.444706478	-4.6691944743	-1.6082568758	 0.103061
H	-0.2743622805	-4.7579659627	-2.032115937	 0.095538
H	-0.0812833596	-2.6568412119	-3.3548807114	 0.097306
H	 1.6754198109	-2.9048862071	-3.3367461934	 0.095118
