18
gdb 106541	2.14401	1.56383	1.5372	2.0214	73.26	-0.2485	-0.001	0.2475	1020.4863	0.146449	-439.021902	-439.013171	-439.012226	-439.055224	32.625	
C	 0.0192864673	 1.4852773589	-0.1487076319	-0.34384
N	-0.0152408144	 0.029520108	 0.0318244958	-0.113397
C	-1.1293819711	-0.5786164905	 0.8731960398	-0.135926
C	-0.2025504525	-1.8150495707	 1.0157110416	-0.274778
C	 0.7461989426	-0.6000922588	 1.2053133749	 0.200699
C	 2.2332726095	-0.5106340306	 1.3828539729	-0.211901
O	 2.6419566845	 0.8220363287	 1.6485639568	-0.415896
C	-0.3693801522	 0.0409889826	 2.0702091031	 0.377993
O	-0.4899277417	 0.8299449679	 2.9604923732	-0.341504
H	 1.0079153743	 1.7612456843	-0.5207918761	 0.145773
H	-0.7249830424	 1.7484906801	-0.9062898117	 0.124377
H	-0.1826125708	 2.0699985605	 0.7607549151	 0.125235
H	-2.1722542133	-0.5309494742	 0.5663439329	 0.10257
H	-0.3607296006	-2.4701018425	 1.8735649395	 0.111899
H	-0.0470951761	-2.3482667117	 0.0767211836	 0.116704
H	 2.5379648139	-1.2031164129	 2.1838136915	 0.104329
H	 2.7498962482	-0.8183857209	 0.4679036531	 0.126502
H	 2.1591020148	 1.1252337815	 2.4265887158	 0.301163
