20
gdb 90501	2.66568	1.23091	1.11252	3.9081	81.98	-0.2349	0.0071	0.242	1215.5184	0.169498	-403.136549	-403.127365	-403.126421	-403.170279	34.254	
C	-0.3340310663	 1.4885141483	-0.0794850969	-0.411474
C	-0.0000575579	 0.00499955	-0.0430353214	-0.025362
C	 1.1408818586	-0.5402876343	-0.9823691967	-0.264208
C	 1.8761775103	-1.0574773061	 0.258302518	-0.086403
N	 2.111540799	 0.0923291722	 1.1143924137	-0.10186
C	 3.0426347982	 0.1196858449	 2.1303546936	 0.126442
O	 4.152118625	-0.3590331963	 2.0757962127	-0.302799
C	 0.789344992	-0.5363292739	 1.1734497016	 0.310278
C	 0.2188632482	-1.0772578444	 2.4483593676	-0.510404
H	 0.5643610482	 2.0869515973	 0.0971549357	 0.132203
H	-0.7474162287	 1.7731082526	-1.0527526931	 0.118045
H	-1.0755206044	 1.7493749686	 0.684010858	 0.112923
H	-0.9052727427	-0.5963858171	-0.1770530237	 0.078119
H	 0.7960870084	-1.3371939439	-1.64423184	 0.108712
H	 1.6880549652	 0.2055065106	-1.5642991737	 0.113124
H	 2.5094372489	-1.9297732096	 0.3651573536	 0.119155
H	 2.6858260158	 0.7152806373	 2.9930433488	 0.078822
H	-0.1904622095	-0.2764864753	 3.0753066928	 0.133637
H	-0.5949249091	-1.7768651377	 2.2328656024	 0.131423
H	 0.9795603208	-1.6056318934	 3.0316333269	 0.139626
