17
gdb 18613	2.89796	2.37083	1.84357	2.3847	68.69	-0.2209	-0.0025	0.2185	795.0234	0.142555	-363.823931	-363.816526	-363.815582	-363.855112	28.534	
C	-0.2100433738	 1.5066446554	-0.1620096287	-0.302301
N	 0.0512676375	 0.0873354997	 0.033385262	-0.089395
C	 1.3717162651	-0.5227939877	-0.162138052	-0.077828
C	 2.572479975	 0.3715608124	-0.1097775324	-0.077796
C	 2.6958244671	 0.9457360152	 1.0872773446	-0.132317
C	 1.6383586496	 0.4504126808	 2.0636473975	 0.073127
O	 0.8771143753	 1.4805646968	 2.6881129286	-0.428996
C	 0.7392544342	-0.4398558917	 1.1981315081	-0.051585
H	 0.6131616379	 2.1759278955	 0.112805866	 0.111199
H	-0.4589532848	 1.664846388	-1.2168015099	 0.109611
H	-1.0787840397	 1.7786223286	 0.4429679194	 0.128546
H	 1.3847866445	-1.4247548883	-0.767485046	 0.089513
H	 3.2089875959	 0.5539205646	-0.9685180466	 0.101493
H	 3.429689324	 1.6963387948	 1.3643021121	 0.093622
H	 2.1068845294	-0.1817911186	 2.8367814148	 0.07755
H	 1.4720512514	 1.9958472029	 3.2422134828	 0.284388
H	 0.2567462815	-1.2851472984	 1.6797879698	 0.091168
