17
gdb 56366	2.03526	1.52243	1.30934	2.5148	78.77	-0.2622	0.0026	0.2648	1092.6506	0.133157	-380.808131	-380.798728	-380.797784	-380.842075	34.582	
C	 0.0472214327	 1.601554348	 0.1406326011	-0.398961
C	-0.0502027453	 0.0649234837	 0.0045959766	-0.096551
C	 0.6502336262	-0.5962452482	 1.1136567592	 0.386484
C	 1.2300946141	-1.1201086909	 2.0242086235	-0.442826
C	-1.4868454671	-0.3287052798	 0.0604830906	 0.271797
N	-2.6016507159	-0.6338672906	 0.0349573298	-0.351308
N	 0.6041093922	-0.3207882662	-1.257622349	-0.07934
C	 0.2765675956	-1.6003676644	-1.8763629509	-0.224524
C	-0.1699046386	-0.3216437482	-2.4987014039	-0.238395
H	 1.1004033386	 1.8835233434	 0.0991378424	 0.147826
H	-0.48776364	 2.0785479156	-0.6840420096	 0.137076
H	-0.384779014	 1.9318220657	 1.0869694029	 0.143696
H	 1.7413109343	-1.5901449192	 2.8282993068	 0.209812
H	 1.1256020837	-2.1475980964	-2.2735214854	 0.127035
H	-0.4958778716	-2.2130977455	-1.4174229622	 0.140899
H	-1.2340487449	-0.103152967	-2.4486406949	 0.141131
H	 0.34816498	 0.0905880399	-3.358961967	 0.126147
