17
gdb 71637	2.82323	1.7165	1.62264	1.2256	66.76	-0.2376	0.0818	0.3194	907.9019	0.137715	-458.911027	-458.904143	-458.903199	-458.941979	28.031	
O	 0.1193732101	 1.3426718033	 0.1156034941	-0.471917
C	 0.0688823787	-0.0313881996	 0.0516335859	 0.361467
C	 0.6197172488	-0.9866946857	 1.1209112657	-0.28916
C	 0.0337130102	-1.9253818913	 0.028907067	-0.166559
C	-1.1903461796	-0.9544312295	-0.0359465759	 0.064311
O	-1.9362565643	-0.885337263	-1.233980395	-0.278578
C	-1.191768981	-1.3974136579	-2.3127779556	 0.011866
O	 0.1285820719	-0.910683206	-2.3202846409	-0.278573
C	 0.6920495505	-0.9775128389	-1.0262742203	 0.064319
H	-0.2969387622	 1.6881119825	-0.6831660088	 0.293044
H	 1.7050908526	-1.009553967	 1.2414079354	 0.106207
H	 0.1039619903	-0.9899247438	 2.0837532716	 0.106206
H	 0.0289287286	-3.0118855059	 0.0451359637	 0.091829
H	-1.8868621888	-0.9463240352	 0.8051783031	 0.087121
H	-1.1767095278	-2.4987334039	-2.2584555952	 0.090838
H	-1.6742328412	-1.0736095211	-3.2373977839	 0.120456
H	 1.7797042933	-0.9912716171	-1.1237837509	 0.087122
