19
gdb 94977	2.7502	1.74964	1.34776	1.2353	75.15	-0.2427	0.0682	0.3109	1000.2719	0.159677	-422.928568	-422.921072	-422.920127	-422.960364	30.105	
C	-0.0496343527	 1.5491108765	 0.0555064712	-0.406999
C	 0.0632793744	 0.0351219385	 0.0447458356	 0.017036
O	 0.8603491147	-0.3672102651	-1.1017258474	-0.306244
C	 1.7799326905	-1.4661482935	-0.8165646937	-0.119518
C	 1.3839220956	-1.9272357812	 0.5772326359	-0.045985
C	 1.9835884105	-1.6863817722	 2.0000534292	-0.006369
C	 2.2671447912	-0.2169888775	 1.6657657383	-0.272493
C	 0.8551972358	-0.6149021882	 1.1489458388	 0.425043
O	 0.6022378803	-1.2813122975	 2.4483841046	-0.375938
H	 0.9363065558	 2.0078161387	 0.1728638641	 0.123387
H	-0.4848017369	 1.9041259287	-0.8822132322	 0.129356
H	-0.6914553538	 1.8747537574	 0.880261401	 0.123473
H	-0.9339448584	-0.4255392835	-0.0177840895	 0.085586
H	 1.6267910261	-2.2377757156	-1.5768076618	 0.109044
H	 2.8070744206	-1.0959349158	-0.9052614649	 0.106516
H	 0.6335550372	-2.7197757343	 0.5796220623	 0.094127
H	 2.5090948294	-2.3757758056	 2.6611198935	 0.099395
H	 2.2673500314	 0.456233279	 2.5225172429	 0.11114
H	 3.0478698583	 0.0156677811	 0.9403530822	 0.109442
