18
gdb 70803	2.93744	1.56929	1.23758	3.1003	76.85	-0.2419	-0.0086	0.2333	1058.746	0.14644	-401.927461	-401.919126	-401.918182	-401.959962	31.84	
C	-0.0452455268	 1.4485406844	 0.104760961	-0.496228
C	 0.0570887963	-0.037595076	-0.0625685339	 0.344679
C	-0.5857156221	-0.8882976916	-1.1533793503	-0.340564
C	-0.409710437	-2.0511389955	-0.1521138039	 0.188973
C	-1.3274320335	-3.2307280596	-0.0599307727	-0.501596
N	-0.3059550357	-0.9881734227	 1.019669809	-0.209134
C	 1.1601496397	-0.831733237	 0.5872576051	-0.242817
C	 1.1113081032	-2.1939835557	-0.0144328827	 0.451745
O	 1.873974555	-3.112847156	-0.1180185528	-0.341617
H	 0.5673585689	 1.9668908494	-0.6403924928	 0.131024
H	-1.082880463	 1.7760910004	-0.0167080687	 0.130702
H	 0.2923688345	 1.7522705141	 1.0998515483	 0.136364
H	-1.6401966267	-0.6179759215	-1.2711572484	 0.111552
H	-0.111641302	-0.9720702272	-2.1363238757	 0.110976
H	-1.2272745805	-3.8482808311	-0.9588075794	 0.138607
H	-1.0773645353	-3.8517610066	 0.804859956	 0.141794
H	-2.3710625388	-2.9141647262	 0.0261307459	 0.127984
H	 1.9046736339	-0.3834727314	 1.2330068762	 0.117557
