19
gdb 90840	3.19774	1.89459	1.46101	1.7308	78.8	-0.2111	0.0762	0.2873	935.9747	0.161074	-381.934544	-381.927705	-381.926761	-381.965401	28.443	
C	 0.0186123017	 1.4712011659	 0.0750997867	-0.34424
N	-0.0170496491	 0.0149368806	 0.0187706253	-0.185694
C	-1.3798548483	-0.5710067064	 0.3376317803	-0.193064
C	-1.0982481193	-1.5401838628	 1.5354117845	-0.114435
C	-0.0848410389	-0.7859541035	 2.4083303725	-0.03392
N	 0.9864677863	-1.8955226956	 2.5406369677	-0.189403
C	 2.007861341	-0.9879188133	 1.8213016605	-0.259548
C	 0.7089546273	-0.6524694234	 1.0734118711	 0.328072
C	 0.2781543169	-2.1182347497	 1.1829782289	-0.012062
H	 1.0428930722	 1.8152810979	-0.0982950431	 0.123337
H	-0.6110356621	 1.8881927236	-0.7162384433	 0.122082
H	-0.3249557534	 1.8855838896	 1.0407773147	 0.092823
H	-2.0858446832	 0.2219173402	 0.6121518078	 0.102545
H	-1.7795626984	-1.1025773112	-0.5317640571	 0.113838
H	-1.9383573125	-2.1213054601	 1.9188241314	 0.073202
H	-0.2318460296	-0.0494351764	 3.1979917013	 0.078796
H	 2.4457230338	-0.2241006046	 2.4705298131	 0.106758
H	 2.7839758818	-1.5450801164	 1.2875535033	 0.109264
H	 0.5596544338	-2.9384340045	 0.5222313544	 0.081649
