17
gdb 53631	4.69065	0.57157	0.5143	2.8899	85.46	-0.2458	-0.0592	0.1866	2068.5923	0.131438	-384.649635	-384.638923	-384.637979	-384.688098	35.787	
C	-0.0693166268	 1.4871344478	 0.0108873391	-0.498058
C	-0.0184138158	 0.0318114109	 0.0025520143	 0.131066
C	 0.0393319598	-1.1708450036	-0.0045577316	-0.000851
C	 0.0775143985	-2.6287134501	-0.0130265456	-0.367685
C	-1.3299066298	-3.2466653509	-0.0027110871	-0.295763
C	-1.3048091485	-4.7640989929	-0.0114100166	 0.231785
O	-0.2808513315	-5.4127895787	-0.0251371452	-0.292119
C	-2.6112455609	-5.404156582	-0.0020911854	 0.238868
C	-3.7025386944	-5.9119761592	 0.0057502754	-0.375391
H	 0.9373308328	 1.9197187855	 0.0030415165	 0.148677
H	-0.6011521867	 1.8738044391	-0.8655950827	 0.14607
H	-0.583296668	 1.8643284811	 0.9020294311	 0.146068
H	 0.6214448938	-2.9927643979	-0.8921457205	 0.142806
H	 0.6384380106	-3.0024300325	 0.8512295911	 0.142797
H	-1.8981589678	-2.9169246751	 0.8761928212	 0.143459
H	-1.9151710701	-2.9072356154	-0.8666365735	 0.143462
H	-4.6579702451	-6.378249356	 0.0120576996	 0.21481
