20
gdb 109157	2.95873	1.25389	0.95167	3.5502	83.65	-0.2359	-0.0186	0.2172	1295.2971	0.171128	-403.210954	-403.201529	-403.200585	-403.2454	34.042	
C	-0.208325892	 1.5264678769	-0.1011077306	-0.380205
C	 0.0875867374	 0.0206481319	 0.0212228019	-0.28428
C	 0.7873497121	-0.5254723031	-1.182208741	 0.230654
C	 2.0300521551	-0.9939536611	-1.3280746849	-0.221348
C	 2.2716126215	-1.4288224741	-2.7489048157	-0.218842
N	 1.0078741795	-1.1478833488	-3.3879456138	-0.087044
C	 0.7239391665	-1.40235625	-4.7771655875	-0.342455
C	 0.0910176645	-0.6162699636	-2.5083184673	 0.362344
O	-1.0537401661	-0.294385539	-2.7734786943	-0.409526
H	 0.7181142233	 2.1022699915	-0.1938258144	 0.111272
H	-0.8245159424	 1.71815462	-0.9825620375	 0.151272
H	-0.7453599932	 1.8855361312	 0.7819075063	 0.111293
H	 0.6861155373	-0.1779241443	 0.916911814	 0.097414
H	-0.8635198414	-0.5123784839	 0.1403953574	 0.122158
H	 2.79152837	-1.0739085519	-0.5624775201	 0.110243
H	 3.0983948616	-0.871291088	-3.2160784502	 0.120415
H	 2.5324016433	-2.4966899431	-2.8139517025	 0.120403
H	 0.826838744	-2.467154888	-5.0224723466	 0.120468
H	-0.3076908837	-1.0935721269	-4.9581527047	 0.165261
H	 1.3895337027	-0.8313778058	-5.4370463885	 0.120502
