19
gdb 96621	3.21	1.02079	0.82893	1.4923	82.11	-0.2384	-0.0479	0.1905	1426.4712	0.158368	-419.224578	-419.214894	-419.21395	-419.259523	35.22	
C	-0.0236177768	 1.4248884937	 0.0660103493	-0.341307
N	-0.0311847937	-0.0252847409	 0.0527712037	-0.272119
C	 0.6065234984	-0.6051764631	-0.8948373453	 0.26911
N	 1.3306782467	-0.0340963881	-1.9036200216	-0.550469
C	 0.6249146327	-2.1223709012	-0.9526846001	 0.348281
O	 1.1704759968	-2.6711679299	-1.8959534211	-0.364037
C	-0.0324143416	-2.8597825682	 0.1456944318	-0.103313
C	-0.690727225	-4.1877650935	-0.2103415601	-0.250458
C	 0.5886405798	-4.1933998386	 0.5477763914	-0.250928
H	 0.9990492145	 1.8329085209	 0.097780979	 0.118426
H	-0.516349748	 1.8510298704	-0.8238995905	 0.110268
H	-0.561872832	 1.7885663876	 0.9442941196	 0.12669
H	 1.1728461759	 0.9265999995	-2.1527821977	 0.257391
H	 1.6192836214	-0.671076592	-2.6319383786	 0.27045
H	-0.483784617	-2.2472194303	 0.9119387313	 0.122757
H	-1.6130309248	-4.4265276336	 0.3063541173	 0.119999
H	-0.6523017007	-4.4668607505	-1.2571155394	 0.134296
H	 1.4868041194	-4.4759381558	 0.0105820791	 0.134846
H	 0.576950414	-4.4356575164	 1.6040790919	 0.120115
