20
gdb 9625	3.34245	1.24261	1.09458	3.4055	77.34	-0.2423	-0.0161	0.2263	1175.0779	0.175001	-349.013819	-349.004617	-349.003673	-349.04758	33.714	
C	 0.1956397513	 1.5531511408	 0.2128904794	-0.384017
C	-0.1680407351	 0.1020227527	-0.1298511772	-0.251478
C	 0.6359899275	-0.4703803707	-1.293310969	 0.349584
C	 0.4488393217	 0.2471647363	-2.6197735248	-0.456223
C	 1.9739165635	-1.0731414658	-1.0139811512	-0.332893
C	 0.8227638217	-1.9928629079	-1.4161551545	-0.14479
C	 0.2829768372	-2.9568154703	-0.4340930819	 0.154546
O	-0.1943502204	-4.0267443614	-0.7282930185	-0.273082
H	 1.2639347538	 1.6496522529	 0.4339254475	 0.119052
H	-0.0393780752	 2.2393066988	-0.60585109	 0.121861
H	-0.3607150907	 1.8897295839	 1.0927436536	 0.117201
H	-0.0179583653	-0.5124588996	 0.7630034046	 0.099942
H	-1.2377819378	 0.0382390201	-0.3679759276	 0.104955
H	 0.7884518228	 1.2862311276	-2.561779311	 0.124777
H	 1.0175707672	-0.2404137908	-3.4168186249	 0.119326
H	-0.6060807845	 0.254785097	-2.9161019512	 0.123505
H	 2.7786523642	-0.9520347029	-1.731040365	 0.122079
H	 2.3031266145	-1.130641488	 0.0197905926	 0.118847
H	 0.8279460958	-2.3853584748	-2.4278570582	 0.101646
H	 0.3595704379	-2.645463348	 0.6326247476	 0.065163
