22
gdb 15082	2.37042	1.54817	1.01683	1.7548	78.09	-0.254	0.086	0.3401	1222.5654	0.199594	-350.191985	-350.182434	-350.18149	-350.226319	35.213	
C	-0.2143108121	 1.5019623577	-0.0453383244	-0.393491
C	-0.0061112353	-0.0140578638	-0.138299004	-0.17567
C	 0.8848931246	-0.479822696	-1.3069019972	-0.00332
C	 2.334404899	 0.0103547103	-1.1498929866	-0.063527
O	 3.1640992063	-0.3138098046	-2.2520083279	-0.428107
C	 0.8415929977	-1.9941788198	-1.4378606268	 0.011648
C	-0.3041448962	-2.6726583212	-2.1413631416	-0.281151
C	 1.0661059044	-2.6793322345	-2.7713107456	-0.291548
H	 0.7159016946	 2.0367549543	 0.1684632953	 0.121363
H	-0.6193117871	 1.9029933022	-0.9813125346	 0.115483
H	-0.9212396548	 1.7478960528	 0.7532740841	 0.11264
H	 0.4176730696	-0.3853748619	 0.8052950689	 0.091968
H	-0.9819190548	-0.5033013712	-0.2405865813	 0.099583
H	 0.4930359126	-0.0470045805	-2.2391197	 0.070633
H	 2.3621288838	 1.1011277186	-1.0744814768	 0.104961
H	 2.7484167157	-0.3896742207	-0.207173622	 0.077533
H	 3.1243606553	-1.2687106516	-2.3656437613	 0.287287
H	 1.2317683598	-2.5207747168	-0.5679368453	 0.080783
H	-0.6868370709	-3.6015902068	-1.7337666455	 0.112257
H	-1.062132442	-2.0414343811	-2.5942025508	 0.113667
H	 1.2207249423	-2.0516470963	-3.6425139998	 0.124842
H	 1.6157565974	-3.6146175992	-2.7917817368	 0.112166
