19
gdb 89567	4.79505	1.05513	1.00713	1.7925	76.64	-0.2202	0.0235	0.2437	1236.5393	0.159993	-419.194115	-419.185974	-419.18503	-419.227185	30.599	
C	 0.0961706179	 1.5412819239	 0.0489614087	-0.322486
N	-0.0162506545	 0.1021717183	 0.0897394006	-0.065984
C	-1.300963461	-0.4980303	 0.4927201026	-0.220338
C	-0.5275378411	-1.5606623989	 1.3054721273	 0.38625
C	 0.7001287834	-0.6358539341	 1.1457887442	-0.220341
C	-1.0125988608	-2.0365837046	 2.6913319793	-0.263354
N	-1.085449183	-3.5040127513	 2.6047635984	-0.262662
C	-0.720036857	-3.7858315983	 1.4255066717	 0.107428
O	-0.3718930596	-2.7971142488	 0.5676021055	-0.254631
H	 1.1260075028	 1.8270335492	-0.1894893445	 0.124252
H	-0.5520227149	 1.9425976186	-0.7370841042	 0.124252
H	-0.1820536584	 2.0284783151	 1.0043602523	 0.087796
H	-1.9084857514	 0.1475033495	 1.1502180179	 0.085252
H	-1.9229448926	-0.8668980628	-0.3294359829	 0.11542
H	 1.634754952	-1.1119322636	 0.8316420232	 0.11542
H	 0.8798354457	-0.0445389494	 2.0602028362	 0.085252
H	-0.3240737249	-1.742555578	 3.4917752511	 0.119237
H	-1.996938026	-1.6272900247	 2.9458548498	 0.119238
H	-0.6521682163	-4.7838712802	 1.0069443428	 0.139998
