21
gdb 63467	2.83696	1.20653	1.03491	0.4309	79.34	-0.2584	0.0757	0.3341	1262.951	0.178857	-424.194634	-424.184467	-424.183523	-424.229874	37.321	
C	-0.0224263426	 1.4791365338	-0.0741757495	-0.456503
C	-0.0721332598	-0.0208224196	 0.1585645877	 0.337343
C	-1.284437904	-0.6629963222	-0.4900733055	-0.460493
O	 1.1815014513	-0.7035148491	-0.0272586464	-0.333491
C	 0.6468151216	-0.6413140092	 1.3085541037	 0.32545
C	 1.4164972155	 0.1838412938	 2.3196565149	-0.500404
C	 0.2066751259	-1.99325748	 1.8155359323	 0.032123
C	 0.8157467586	-2.6672747048	 2.9716554594	-0.190573
O	-0.4587017047	-2.0298433823	 3.082552201	-0.238128
H	 0.9470977821	 1.9016599541	 0.1881927206	 0.1321
H	-0.1987100141	 1.6918455916	-1.1340634748	 0.122872
H	-0.8015341891	 1.9913351204	 0.5007167665	 0.12413
H	-1.2782631319	-0.4509762423	-1.5647230817	 0.125219
H	-1.3173824779	-1.7443200204	-0.3658865155	 0.127598
H	-2.2049835737	-0.2401153066	-0.0737386904	 0.127155
H	 1.5047787849	 1.2285602535	 2.027047047	 0.122576
H	 0.9070683666	 0.1391530402	 3.2866649909	 0.142888
H	 2.4280213141	-0.2167634473	 2.4407307445	 0.128545
H	-0.2356559212	-2.637401385	 1.0600664452	 0.096
H	 0.7986295674	-3.7553563732	 3.0159230992	 0.117932
H	 1.6238517908	-2.1944364654	 3.5238156311	 0.117662
