18
gdb 62315	3.86701	1.29096	1.12612	1.3859	82.86	-0.2251	0.0305	0.2556	1108.1044	0.146219	-364.674325	-364.666134	-364.66519	-364.706624	32.562	
C	-0.0319170544	 1.6069846479	 0.033970188	-0.494764
C	 0.0584863802	 0.0765841699	-0.0557427752	 0.112868
C	-1.0267078981	-0.5664372843	 0.6539382946	 0.268267
C	-1.9302289163	-1.0898861797	 1.2518336797	-0.448294
C	 0.4639868576	-0.7494539327	-1.2684232305	-0.110361
C	 1.7735762958	-0.3042055773	-1.9476379417	-0.063884
C	 2.5619446942	 0.7721802155	-1.2996714369	-0.250379
N	 2.5793257696	-0.5715706664	-0.699678903	-0.14867
C	 1.2735491378	-0.8820922887	-0.0074094801	-0.043888
H	 0.1922723271	 2.0872373726	-0.9194914712	 0.135301
H	-1.0527010211	 1.8837343475	 0.3073893986	 0.131831
H	 0.6339383773	 2.0129167526	 0.8016989642	 0.135284
H	-2.7296210584	-1.5474397771	 1.7799329998	 0.193549
H	-0.2126701446	-1.4559429724	-1.7304228435	 0.106607
H	 2.0810514471	-0.7366585063	-2.8946463502	 0.106756
H	 3.5115848051	 0.9989949001	-1.7786789314	 0.122597
H	 2.1253483409	 1.6072473039	-0.7764851407	 0.129001
H	 1.2973992703	-1.6658254351	 0.7380349197	 0.118179
