17
gdb 74157	2.90608	1.42464	1.03406	6.1805	78.88	-0.221	-0.0219	0.1991	1128.4178	0.137423	-418.024844	-418.016864	-418.01592	-418.057318	31.28	
N	 0.0999187065	 1.3467734573	 0.0859433048	-0.598783
C	 0.0009942841	-0.0144632313	-0.0054901467	 0.319821
C	-1.1243488958	-0.7712279031	 0.0347164959	-0.331519
C	-0.7941157937	-2.1926484798	 0.0007320997	 0.383327
O	-1.5587234512	-3.1344936941	 0.0005170215	-0.356786
C	 0.7428193588	-2.3055274944	-0.0537628623	-0.415185
C	 1.2313944355	-0.8665384008	-0.0605728864	 0.28217
C	 2.4761574375	-0.39472614	-0.7302590018	-0.298134
N	 2.4242603797	-0.5027295119	 0.7320074013	-0.345112
H	 0.9029857953	 1.7931022301	-0.3290774774	 0.257955
H	-0.7518457395	 1.8765946168	-0.0152899581	 0.267634
H	-2.1412114617	-0.4031229101	 0.0792675713	 0.096311
H	 1.1159803348	-2.8458093617	 0.8202656846	 0.143253
H	 1.040857479	-2.8676589256	-0.9435962362	 0.12697
H	 3.1134680309	-1.124337681	-1.2224737785	 0.132626
H	 2.4924696079	 0.588580883	-1.1974054667	 0.101772
H	 2.2941909219	 0.4144535768	 1.154521365	 0.23368
