17
gdb 83303	2.42623	1.87476	1.505	1.4671	66.42	-0.2432	-0.0327	0.2105	930.2823	0.137784	-458.986008	-458.978773	-458.977829	-459.017635	28.594	
O	 0.1624723493	 1.3596381611	 0.3242911859	-0.438234
C	-0.0034287791	-0.0114709336	 0.0814602447	 0.047356
C	-1.4488727836	-0.5046211919	-0.168646008	 0.033659
C	-2.1045732455	 0.2984978775	-1.311046999	-0.233123
C	-1.4314755834	-0.3347848684	-2.5662135309	-0.22912
C	-0.4352346789	-1.3237567059	-1.9008976662	-0.046258
O	-1.164238755	-1.7883500473	-0.7569601483	-0.261432
C	 0.6272693105	-0.4386049053	-1.2554450702	 0.37779
O	 1.659250549	-0.0070784142	-1.7018925941	-0.335958
H	 0.9894443608	 1.6157471281	-0.1080214509	 0.296122
H	 0.4225270849	-0.625788761	 0.890861174	 0.104737
H	-2.0490580254	-0.6415448064	 0.7292709566	 0.092649
H	-3.1862153825	 0.1562136427	-1.3194969728	 0.111405
H	-1.8932452003	 1.3641867576	-1.2052501697	 0.129875
H	-2.1483277977	-0.8975180108	-3.1676953913	 0.118521
H	-0.9323717782	 0.3917941956	-3.2108393201	 0.124837
H	-0.0810615652	-2.1512753778	-2.5119870296	 0.107173
