17
gdb 47669	2.39437	1.86476	1.22479	3.9158	69.22	-0.2678	-0.0176	0.2502	1013.7148	0.136947	-458.983209	-458.975383	-458.974438	-459.016059	29.374	
O	 0.0048616175	-0.095874083	 0.1826858049	-0.347501
C	 0.0468767289	 1.0954785847	 0.0871725898	 0.462235
O	-1.0358852463	 1.913757147	 0.112509528	-0.23203
C	-1.8544064315	 1.818540672	 1.2813584705	-0.078337
C	-1.0830455507	 2.4298730787	 2.4729767708	-0.295974
C	-0.4356398039	 3.7291715011	 2.067074871	-0.02219
C	 0.6824808018	 3.8272238532	 1.3434731432	-0.058334
C	 1.5941987315	 2.6813265954	 0.9621802108	-0.137436
O	 1.183855586	 1.7947271631	-0.121110256	-0.245626
H	-2.7539324829	 2.3924995305	 1.0494200721	 0.123558
H	-2.1266893307	 0.7760483038	 1.4736423332	 0.134454
H	-1.7684368569	 2.5669510941	 3.3149336021	 0.11223
H	-0.3256771535	 1.7036934624	 2.7949255743	 0.125173
H	-0.981040871	 4.6401849869	 2.3023912971	 0.100409
H	 1.0124711045	 4.8121341534	 1.0249751684	 0.100003
H	 2.5511712508	 3.0685233091	 0.6121384846	 0.132254
H	 1.7918714864	 2.0440265476	 1.8337794452	 0.127111
