15
gdb 12473	3.68873	1.95667	1.35105	6.756	65.92	-0.218	-0.0164	0.2016	871.6183	0.121303	-399.836535	-399.829504	-399.82856	-399.867883	26.134	
O	-0.0466753145	-0.1338483763	-0.007392009	-0.349327
C	-0.0432055615	 1.0696727368	-0.0988282219	 0.379901
O	-1.2401841694	 1.6792292564	-0.3958537425	-0.234955
C	-1.2929287911	 3.0170666427	-0.8599190163	-0.07803
C	-0.9586620485	 4.051383659	 0.2147863079	-0.174545
N	 0.4719252962	 4.2152799367	 0.3667857536	-0.297746
C	 1.3572028254	 3.1881034376	 0.3494968188	 0.021848
C	 1.1658188146	 1.8666417078	 0.114740388	-0.249877
H	-0.6417410912	 3.1584569232	-1.7312594416	 0.123715
H	-2.3285142178	 3.1595070616	-1.1785759308	 0.126852
H	-1.3806193033	 5.0202308738	-0.0712937884	 0.116636
H	-1.4382631477	 3.7388749108	 1.1540456102	 0.128963
H	 0.8086559314	 5.1092771619	 0.678226995	 0.255387
H	 2.3758331784	 3.512135204	 0.5469016054	 0.121049
H	 2.046509579	 1.240690404	 0.1813583017	 0.110129
