18
gdb 65988	2.76922	1.27099	1.16102	3.3381	71.22	-0.256	0.0057	0.2616	1134.2032	0.147774	-439.078373	-439.069755	-439.068811	-439.112349	31.54	
C	 0.0622513335	 1.5489768009	 0.1386668451	-0.486299
C	-0.0173177135	 0.0255491234	 0.0435221431	 0.082847
C	 0.869679356	-0.6241949173	-1.0518933711	-0.117907
O	 1.7227066929	-1.2279418758	-0.0268042609	-0.243288
C	 0.9829358084	-0.6781778203	 0.9874018415	 0.44148
O	 1.1590846736	-0.776837197	 2.1580895669	-0.328916
C	-1.408092245	-0.5774384577	 0.1356480318	-0.019422
C	-2.524419884	 0.0597311487	 0.8737700353	-0.244427
N	-2.5593604915	-0.0266287409	-0.5983073639	-0.331745
H	 1.0901206694	 1.8892557625	-0.0150817474	 0.137411
H	-0.5607973899	 2.0386855445	-0.6171104858	 0.123411
H	-0.2538947374	 1.8924702513	 1.1266047884	 0.150727
H	 0.3938471695	-1.3944647693	-1.6619532122	 0.132525
H	 1.4450968091	 0.0631282453	-1.6756204778	 0.123174
H	-1.3913042748	-1.6662619464	 0.1136599086	 0.103387
H	-3.2502128893	-0.5634476347	 1.3874831133	 0.128868
H	-2.3588395928	 1.0288262199	 1.3337670767	 0.118347
H	-2.3276928839	 0.8794599629	-0.9982922314	 0.229826
