19
gdb 69657	4.2538	1.11191	1.04093	2.4984	75.32	-0.2435	0.0709	0.3144	1205.9758	0.158066	-422.96781	-422.959476	-422.958532	-423.001003	31.51	
C	 0.189860694	 1.5582568786	-0.0328949512	-0.500094
C	-0.0558032523	 0.0942671633	 0.1258474827	 0.429208
C	-1.3842678513	-0.6797389642	 0.0085440215	-0.39134
C	-0.7989759636	-1.750728554	 0.9835591449	 0.303943
C	-1.5229834862	-2.1550913432	 2.2818576869	-0.14082
O	-1.3066076889	-3.5536733171	 2.0158197481	-0.275369
C	-0.7471655147	-3.2634151142	 0.7145181624	-0.128507
C	 0.4865354287	-0.9209537594	 1.0473424892	-0.128282
O	 0.969417851	-0.8197686737	-0.3014804571	-0.289507
H	 1.2113297354	 1.8081939788	 0.2656384969	 0.136317
H	 0.0557749446	 1.8629305313	-1.0770672778	 0.133118
H	-0.5088706656	 2.1387065271	 0.5780997789	 0.124942
H	-2.2362413715	-0.1502265677	 0.4458469672	 0.106668
H	-1.6403099982	-1.016159343	-0.9998129118	 0.109604
H	-1.0571478912	-1.8341466903	 3.2230274069	 0.101129
H	-2.5916586641	-1.899826314	 2.3102024036	 0.096458
H	-1.4004175721	-3.6106917481	-0.0970501439	 0.100184
H	 0.2507631446	-3.696868753	 0.5818542813	 0.1116
H	 1.2182741414	-0.8554297972	 1.8464825211	 0.100748
