22
gdb 107970	2.68698	1.3379	1.2962	1.9432	86.39	-0.2216	0.086	0.3076	1164.7626	0.193515	-367.132038	-367.123151	-367.122206	-367.165345	34.596	
C	-0.0921827132	 1.570944945	 0.0258034814	-0.377789
C	 0.0282155356	 0.0417541573	-0.0123837663	-0.323588
C	 0.6957258911	-0.4708313824	-1.2661681124	 0.299355
C	 0.2964973723	-0.3227328172	-2.7347264065	-0.242369
N	 1.5705770957	-1.1445440343	-2.8865146023	-0.190096
C	 2.1947551819	-0.3636173976	-1.7043357669	-0.039932
C	 2.6137384651	-1.6575672555	-1.0080114366	-0.308606
C	 1.2140966628	-1.9255330686	-1.5810594476	 0.318395
C	 0.4432967178	-3.211935434	-1.6224957663	-0.519938
H	 0.8937491161	 2.0455755208	-0.0168038261	 0.118516
H	-0.6759348614	 1.9436009359	-0.8224296293	 0.119956
H	-0.5858881046	 1.9060267179	 0.9428351553	 0.113674
H	 0.5908756817	-0.3067191577	 0.8639808403	 0.097645
H	-0.9705427533	-0.4081301217	 0.068613957	 0.099211
H	-0.6059833597	-0.8346190559	-3.087348181	 0.092886
H	 0.3683185013	 0.6700710713	-3.192434489	 0.094746
H	 2.7679729047	 0.5452652793	-1.8975388529	 0.075421
H	 3.4342272172	-2.2101335157	-1.4753726235	 0.10232
H	 2.7127060579	-1.6341421853	 0.0804647441	 0.093796
H	 0.2236314675	-3.5636045562	-0.6085534705	 0.121692
H	-0.5074050204	-3.0934268718	-2.1528119647	 0.122871
H	 1.022195044	-3.9875462036	-2.1343775761	 0.131833
