19
gdb 32843	4.33866	0.81162	0.7151	2.8074	79.48	-0.1919	0.0363	0.2282	1601.4143	0.160125	-419.260724	-419.251517	-419.250573	-419.295975	33.815	
C	-0.0433125771	 1.5733004874	-0.020038457	-0.383119
C	-0.1239933831	 0.0469391378	-0.0827110086	-0.151797
C	 0.7786456251	-0.5511340246	-1.1775309648	-0.300122
C	 0.7564984671	-2.0457793403	-1.2028898709	 0.356702
N	 1.1431135723	-2.8422949808	-0.2180191113	-0.385638
C	 0.9349061751	-4.1136723754	-0.6679537251	 0.338717
O	 1.228958063	-5.1873084098	 0.099295904	-0.439788
C	 0.4173430355	-4.1216833038	-1.9364465267	-0.217575
N	 0.3104521361	-2.7741832333	-2.2580379004	-0.280196
H	 0.9792108517	 1.9076359017	 0.1882558111	 0.116836
H	-0.3530108276	 2.0299799627	-0.9671400868	 0.110549
H	-0.6902260936	 1.9717295332	 0.7674185362	 0.115203
H	 0.1680023305	-0.3895321751	 0.8780069001	 0.12482
H	-1.1597286987	-0.2672070484	-0.2610629591	 0.09717
H	 0.478313541	-0.1663753176	-2.1604508608	 0.090146
H	 1.8093551995	-0.2119889785	-1.0131578484	 0.123349
H	 1.5769126716	-4.8336868818	 0.9267286116	 0.298163
H	 0.1322349736	-4.9099422159	-2.6092463493	 0.125916
H	-0.0334414022	-2.4027845575	-3.1272250138	 0.260664
