18
gdb 10279	2.5237	1.66602	1.08407	2.1028	73.98	-0.2432	-0.0176	0.2255	1120.1355	0.149719	-347.797945	-347.78818	-347.787236	-347.833171	34.326	
C	 0.1481578871	 1.6133057873	-0.3663404287	-0.397235
C	 0.1523603287	 0.0846761632	-0.3914617577	-0.164794
C	-1.1675629843	-0.5361557624	 0.1106948176	-0.258994
C	-2.3083709726	-0.1943202807	-0.7342719169	 0.333464
C	-3.2286738624	 0.084026021	-1.456788184	-0.481983
C	-1.0443190602	-2.0715947953	 0.3095454185	 0.380539
C	-2.3185744583	-2.8243045403	 0.6299793091	-0.477691
O	 0.0292213771	-2.6172253545	 0.2405695154	-0.287506
H	 1.1015959624	 2.0072740979	-0.7305167093	 0.116923
H	-0.6484379175	 2.0207640334	-0.9961136189	 0.129201
H	-0.0017526064	 1.9946995867	 0.6503090786	 0.111489
H	 0.3424581961	-0.2792567954	-1.406464829	 0.113159
H	 0.9586363233	-0.3111626947	 0.2315451567	 0.119
H	-1.3722345171	-0.1439352976	 1.1216575185	 0.123903
H	-4.0461788468	 0.3345056314	-2.0867598952	 0.201035
H	-2.8879504348	-2.3161302063	 1.4151844625	 0.137383
H	-2.9612270549	-2.8501785143	-0.2555608865	 0.160837
H	-2.0737575593	-3.8415556693	 0.9370346094	 0.14127
