17
gdb 50399	2.66891	1.61817	1.30588	2.4571	73.75	-0.2425	-0.0212	0.2213	1007.2368	0.136154	-421.79618	-421.788579	-421.787635	-421.828728	28.591	
O	-0.7224525468	 0.9751286361	-0.5298826062	-0.244439
C	 0.1750075014	 1.0373568483	 0.2696953003	 0.170538
C	 1.4003968844	 1.9298361119	 0.1335314828	-0.169217
C	 1.3081496224	 2.8893804016	-1.0964307583	-0.262573
C	 0.6664059569	 4.1447215825	-0.5086914045	-0.185864
C	 0.850225159	 4.1532005193	 0.8053158818	 0.18969
C	 0.1536184428	 4.3027019894	 2.1348961657	-0.152684
O	 0.502747315	 2.9075105962	 2.4196246289	-0.306068
C	 1.4921415202	 2.9116599174	 1.3288565751	 0.091155
H	 0.1707956524	 0.4134759112	 1.1878967729	 0.096277
H	 2.2697696888	 1.2606934302	 0.0946955624	 0.093071
H	 2.294587503	 3.0695458398	-1.5405872256	 0.108792
H	 0.6709410474	 2.4529770909	-1.8708850388	 0.136945
H	 0.0512777801	 4.8179966026	-1.0931511184	 0.107882
H	 0.6259446487	 4.9740121968	 2.8630919379	 0.112613
H	-0.9271685475	 4.4721803635	 2.1180603018	 0.129323
H	 2.500436142	 2.9796998122	 1.7559780821	 0.084558
