25
gdb 106404	2.39323	1.27809	1.20255	0.2356	93.15	-0.2707	0.0868	0.3576	1270.4616	0.228298	-352.316434	-352.306522	-352.305578	-352.35083	38.619	
C	-1.447959504	 2.0228805885	 0.1997624385	-0.378783
C	-0.9645081484	 0.5714652779	 0.0957937002	-0.317123
C	-2.0838245302	-0.4425105003	 0.1147036675	 0.335871
C	-3.1547449908	-0.6637822428	 1.234806963	-0.277894
C	-3.4747568061	-1.7190589108	 0.1373503267	-0.086592
C	-3.2870954788	-0.55706005	-0.8799983438	-0.277889
C	-1.9347496531	-2.0195587449	 0.0258001028	 0.324005
C	-1.3957428867	-2.6315830945	-1.2741475631	-0.471041
C	-1.2420330507	-2.7553787356	 1.1806505469	-0.471036
H	-0.6058325399	 2.721439352	 0.182237755	 0.110053
H	-2.1123232435	 2.2790664496	-0.6321093962	 0.118093
H	-2.0015840063	 2.1897524311	 1.1296396359	 0.118096
H	-0.3839324075	 0.4434163723	-0.8277788797	 0.096658
H	-0.2739744884	 0.3546860566	 0.9220026447	 0.096657
H	-2.8220524791	-1.008293134	 2.2127186109	 0.087538
H	-3.8934088576	 0.1344617525	 1.3448617816	 0.085041
H	-4.2854524674	-2.4508479888	 0.1511677932	 0.060566
H	-4.0287041593	 0.2435310174	-0.8167322835	 0.085039
H	-3.0807457981	-0.7996523399	-1.9212723485	 0.087537
H	-1.8081878196	-2.2026680894	-2.1873932781	 0.113201
H	-0.3061949233	-2.5185891449	-1.3220484972	 0.112167
H	-1.6036642253	-3.7077828483	-1.296097433	 0.112235
H	-1.453191909	-3.8295147472	 1.1209634952	 0.11224
H	-0.1542592532	-2.6417675696	 1.1030820877	 0.112161
H	-1.5341476238	-2.4220117969	 2.1764581733	 0.113199
