17
gdb 30139	3.81575	1.0844	1.04569	3.3303	74.88	-0.221	0.0259	0.2469	1200.7864	0.137335	-418.028982	-418.021022	-418.020078	-418.062025	29.751	
C	 1.1535531223	 0.9241644026	-0.70665314	-0.42486
C	 0.0562445841	 0.1452529771	-0.0343315261	 0.092571
O	 0.4035977999	-1.1036402919	 0.574513904	-0.262088
C	-0.052404653	-0.0499057905	 1.4298694067	-0.067773
C	 0.9176922706	 0.4672619884	 2.4152730907	 0.279957
C	 2.2370992872	 0.1242436278	 2.5744196423	-0.181242
N	 2.6753404136	 0.8664511461	 3.6487366048	-0.235198
C	 1.6194727048	 1.6081055636	 4.0872587121	 0.010331
N	 0.5427267725	 1.3903565313	 3.3696575673	-0.31655
H	 2.0223250188	 1.0324166634	-0.0536656236	 0.125978
H	 1.4687067821	 0.4212782718	-1.6270746499	 0.125187
H	 0.7936944134	 1.9230500078	-0.9759115358	 0.123008
H	-0.8827073401	 0.1029626353	-0.5909457263	 0.088562
H	-1.0564871625	-0.1873551246	 1.8333790537	 0.09789
H	 2.8683066562	-0.5734245029	 2.0522993301	 0.144572
H	 3.6001535784	 0.8482820326	 4.0443830172	 0.268611
H	 1.6964418616	 2.2808008022	 4.9284571228	 0.131043
