19
gdb 114293	2.4338	1.39995	1.07918	3.5203	80.49	-0.2202	0.0274	0.2476	1184.549	0.159515	-382.038637	-382.029981	-382.029037	-382.072187	32.316	
C	-0.1756310249	 1.683655407	 0.0455623652	-0.381147
C	 0.0166137581	 0.1839031145	 0.259822546	-0.14767
N	-1.2149544162	-0.5428977992	-0.0290778262	-0.069486
C	-1.7020906016	-0.7396483338	-1.4240600797	-0.200252
C	-1.9481773305	-2.2197871617	-1.1079382673	-0.109087
C	-0.6412089684	-2.9010801306	-0.7371753988	-0.195707
C	 0.595398083	-2.6282100708	-1.4137566864	 0.309021
N	 1.5867986908	-2.4153634183	-1.9727978491	-0.361522
C	-1.3421360247	-1.9525441753	 0.2501203357	-0.027043
H	 0.7401401712	 2.2280124199	 0.2941164341	 0.118246
H	-0.4168208196	 1.9043269039	-0.9999727605	 0.119965
H	-0.991171182	 2.0629028586	 0.6681261971	 0.121873
H	 0.8675907176	-0.1732506916	-0.3393532636	 0.120236
H	 0.2607723424	-0.0141532056	 1.310718516	 0.103712
H	-2.61242009	-0.1693599314	-1.6299125968	 0.118181
H	-0.96451379	-0.5461506333	-2.2129887985	 0.124843
H	-2.8242312575	-2.7940664015	-1.3759772711	 0.111382
H	-0.7638099215	-3.9459033144	-0.4646589207	 0.134273
H	-1.6070715962	-2.3170882164	 1.2376676244	 0.110182
