19
gdb 65208	3.11151	1.3787	1.20681	3.2836	74.2	-0.2471	0.0798	0.3269	1094.9284	0.157814	-422.962786	-422.954485	-422.953541	-422.995913	31.8	
C	-0.0163866381	 1.5983215409	-0.2723571944	-0.467075
C	-0.0083631487	 0.1093980076	-0.0027977306	 0.421282
C	 1.1604171543	-0.6969981703	-0.3877587143	-0.23589
O	 0.9488438593	-0.3182774939	 0.9742205743	-0.258579
C	-1.3724660254	-0.5495686329	 0.0630106978	-0.107049
C	-1.5261209456	-1.9329892891	 0.7955514049	-0.2809
C	-2.5744771804	-1.2753908984	 1.7048536842	 0.029955
O	-1.9359378548	-0.183706567	 2.374136771	-0.234247
C	-2.4165549788	 0.0284312539	 1.0445811965	 0.012281
H	 1.0039312781	 1.9835657801	-0.3365036928	 0.127219
H	-0.5348174165	 1.823742491	-1.2110508398	 0.115795
H	-0.5307502558	 2.1292868497	 0.5351338694	 0.138168
H	 1.0427630743	-1.7594747683	-0.6000090721	 0.107977
H	 2.0061895929	-0.2197466265	-0.8817261091	 0.109958
H	-1.7969307745	-0.5964166155	-0.9464087823	 0.083597
H	-1.9313093938	-2.7130120362	 0.1474230374	 0.102008
H	-0.6381653171	-2.2920023314	 1.3176244085	 0.13105
H	-3.4347702525	-1.7196870353	 2.1911016399	 0.105051
H	-3.120839037	 0.8386601917	 0.8926051815	 0.099397
