18
gdb 18346	3.22676	2.21104	1.50646	1.6307	72.9	-0.2348	0.0203	0.2551	878.8411	0.155179	-347.804386	-347.797216	-347.796272	-347.83575	27.401	
C	 0.2451141057	 1.3992349838	 0.0887041537	-0.501062
C	-0.0003366124	-0.0729184193	-0.0027929599	 0.328379
C	-0.0145800269	-0.8429946974	-1.0952042165	-0.163456
C	-0.2740926551	-2.3058182896	-0.8125036246	-0.279608
C	-0.285129371	-2.3652715137	 0.7260425251	-0.072121
C	 1.0730284058	-2.4931437465	 1.4530436108	-0.079445
O	 0.9787117297	-1.1580299663	 1.9976402115	-0.295932
C	-0.2345634954	-0.9047701127	 1.2353511557	 0.034479
H	 1.1031366967	 1.6022562416	 0.7405883056	 0.142274
H	 0.444009341	 1.8420706146	-0.8909085734	 0.120823
H	-0.6149000862	 1.9185286764	 0.5308162388	 0.12359
H	 0.1443910882	-0.473064913	-2.1040159218	 0.087757
H	-1.2279108717	-2.638081848	-1.2435374131	 0.105467
H	 0.4974350201	-2.9558945546	-1.2466922679	 0.104543
H	-1.0694169115	-3.0005363118	 1.1376208554	 0.077354
H	 1.1289837111	-3.2468705882	 2.2470367273	 0.100656
H	 1.9399394546	-2.6094580412	 0.788480786	 0.096631
H	-1.0253500429	-0.5179438241	 1.8901338373	 0.069672
