22
gdb 120066	5.22549	0.84526	0.8332	1.5004	87.36	-0.2258	0.0886	0.3144	1510.7024	0.194596	-367.119449	-367.110984	-367.11004	-367.153086	32.719	
C	 0.0924494126	 1.5789666481	 0.0035812627	-0.382022
C	-0.000095153	 0.0519806965	-0.0404813462	-0.156299
C	-1.4266168805	-0.4722620583	 0.1719429881	-0.21308
C	-1.5088543693	-1.9860752902	 0.0977956604	 0.057816
C	-2.8358490583	-2.7148277682	-0.11280309	-0.094166
C	-2.7787505988	-2.392440657	-1.6381799303	-0.005931
C	-2.9356867001	-3.8528041857	-2.0695795439	-0.25814
C	-2.0608201999	-3.8703208677	-0.8147108845	 0.002741
N	-1.2768492993	-2.6136733914	-1.2836532645	-0.172087
H	 1.1212975261	 1.9208238756	-0.146937169	 0.111146
H	-0.5265041373	 2.036399103	-0.7765530317	 0.112567
H	-0.2507587298	 1.9712248386	 0.9678290358	 0.110214
H	 0.370883659	-0.3189313872	-1.0028836187	 0.118885
H	 0.6588161974	-0.377977998	 0.7255983107	 0.09197
H	-1.7990549442	-0.1482875566	 1.1541268879	 0.092358
H	-2.0973035336	-0.0221410636	-0.5713320867	 0.091487
H	-0.8426796266	-2.4416279335	 0.8441057887	 0.063409
H	-3.7226692911	-2.7893095111	 0.5273943098	 0.060208
H	-3.1048572626	-1.4862782617	-2.1494823422	 0.083086
H	-3.9338358503	-4.289776381	-1.9846358804	 0.097808
H	-2.4446197584	-4.1348834685	-3.0046713217	 0.108021
H	-1.5308195822	-4.6961511323	-0.3360033444	 0.080008
