15
gdb 97355	2.51723	0.96566	0.77686	4.7505	75.92	-0.2636	-0.0221	0.2415	1459.0364	0.111366	-412.994866	-412.985267	-412.984323	-413.030775	32.535	
C	-0.0295920672	 1.4440556511	 0.2471687794	-0.318326
N	 0.0237299108	 0.0021414219	 0.1304562408	-0.212297
C	-1.0436334795	-0.6267819568	-0.1194950716	 0.10881
N	-1.0885016317	-2.0097243187	-0.1753736508	-0.304394
C	 0.1546308756	-2.7530476647	-0.1556796624	-0.244285
C	 0.0440818299	-3.9587466128	 0.6836981678	 0.31106
N	-0.0516710439	-4.8965669641	 1.3495020526	-0.300606
C	 0.6318947498	-3.1092008882	-1.50933706	 0.295211
N	 0.9736050741	-3.3662161886	-2.581807242	-0.302439
H	 0.6646128782	 1.897034546	-0.4690545329	 0.136427
H	-1.032770328	 1.8629169294	 0.0722051901	 0.103978
H	 0.299972503	 1.7465618124	 1.2475394708	 0.134833
H	-2.025886043	-0.1641795977	-0.2771349691	 0.109765
H	-1.8738888803	-2.4392760349	-0.6381100707	 0.270332
H	 0.891891602	-2.0692449042	 0.2891843778	 0.211932
