19
gdb 36610	5.28983	0.74162	0.70983	1.1441	81.7	-0.2342	0.0524	0.2866	1589.0614	0.157605	-385.809734	-385.800811	-385.799867	-385.844086	33.358	
C	-0.0009587079	-1.2638883717	-0.0628956147	-0.432911
C	-0.0135843123	-0.0626452625	-0.1058166201	 0.294765
C	 0.0092555299	 1.3935143594	-0.1488478718	-0.354614
C	 1.4047318277	 1.984234725	 0.1666100404	-0.323086
C	 1.413680113	 3.4843312431	 0.1208993359	 0.3081
C	 1.5508669625	 4.3012342155	-1.1554355806	-0.342257
C	 2.5246971795	 4.4985838737	-0.0353613508	 0.026836
O	 1.9827265299	 5.3742747106	 0.9555043994	-0.285473
C	 0.9217714162	 4.4201964917	 1.2280090549	-0.12805
H	-0.0044025363	-2.3249963501	-0.0283297356	 0.194248
H	-0.311398882	 1.7407269834	-1.1390682506	 0.135542
H	-0.7249641965	 1.7916158487	 0.5637148368	 0.131907
H	 1.7244633791	 1.6331630664	 1.1549745749	 0.113881
H	 2.1273105299	 1.5855600642	-0.5539062369	 0.113846
H	 1.9241919697	 3.7397202895	-2.0073191268	 0.114488
H	 0.849788449	 5.0961528968	-1.3961561213	 0.114988
H	 3.6032116235	 4.4093289553	-0.1034999759	 0.107069
H	-0.0757300231	 4.8646191213	 1.1266399245	 0.104205
H	 1.0376325782	 3.9961060397	 2.2331745382	 0.106517
