21
gdb 86445	1.86485	1.64619	0.91939	4.2695	80.34	-0.2334	0.0583	0.2918	1305.7514	0.184254	-420.477489	-420.468235	-420.46729	-420.511399	35.269	
C	-0.0152333044	 1.5719223097	 0.0197813124	-0.405524
C	 0.052142877	 0.0454437256	-0.0120530602	 0.046842
C	 0.7293667461	-0.4840864849	-1.2783588978	-0.181735
C	 0.8977314895	-2.0039635421	-1.2136269842	 0.046825
C	 1.6874014298	-2.5553946798	-2.400232132	-0.405524
N	 1.5815591437	-2.3332970117	 0.0308209523	-0.34659
C	 1.4103033064	-1.6740068071	 1.2302294735	 0.435033
O	 1.8197342494	-2.1246293897	 2.2868866284	-0.419215
N	 0.8000941167	-0.4402514679	 1.1409331468	-0.346579
H	 0.9892697509	 2.0036464444	-0.0284034993	 0.128135
H	-0.6014825128	 1.9493484806	-0.8235932863	 0.119251
H	-0.4931347806	 1.9234826934	 0.9406905367	 0.116626
H	-0.9810262171	-0.3428473955	 0.0088008145	 0.075864
H	 0.1311495167	-0.2169431754	-2.1549632644	 0.101041
H	 1.7150431416	-0.0149192717	-1.3849476543	 0.108975
H	-0.1080692015	-2.4586011845	-1.2313996948	 0.075857
H	 2.6859020414	-2.1091496751	-2.4401623363	 0.128136
H	 1.8029174198	-3.6419823094	-2.3225046994	 0.116624
H	 1.1689649624	-2.3429237786	-3.3401785351	 0.119247
H	 1.9267165505	-3.2727243252	 0.1529135206	 0.243353
H	 0.5948571547	-0.044994185	 2.0454786688	 0.243358
