15
gdb 67230	2.68702	2.02257	1.49469	2.4408	64.77	-0.2299	-0.0209	0.209	875.0485	0.113091	-457.720622	-457.713824	-457.712879	-457.751623	27.158	
O	 0.1254564959	 1.42643626	 0.1086725966	-0.471473
C	 0.0552115499	 0.0685592176	 0.001669481	 0.258576
C	 0.3410198401	-0.8059077081	 1.2753556588	 0.056209
C	-1.1688112673	-0.8783902937	 1.5765104681	-0.255974
C	-1.288317787	-0.8921508603	 0.0440260782	-0.138453
C	-0.2394322041	-1.945226266	-0.4810653878	-0.074694
O	 0.6051219607	-2.0896020448	 0.6739775397	-0.26671
C	 0.4303691056	-0.7571893511	-1.20616573	 0.38214
O	 0.7515829443	-0.4736338875	-2.3263028046	-0.3377
H	 0.0742478632	 1.7986319216	-0.7815321812	 0.304433
H	 1.1060783626	-0.5442027562	 2.0030752186	 0.10085
H	-1.5242987561	-1.7356754587	 2.1519893379	 0.110733
H	-1.5499435646	 0.0604883372	 1.983809376	 0.124983
H	-2.1899052267	-0.7135670936	-0.5359823093	 0.100846
H	-0.4885391166	-2.8940296463	-0.9457065719	 0.106234
