16
gdb 7570	3.34736	1.79954	1.43805	4.102	60.67	-0.2403	0.0222	0.2625	888.2534	0.13113	-417.060582	-417.052449	-417.051505	-417.093583	29.753	
N	-0.0680453001	 1.374744379	 0.0390233863	-0.532931
C	 0.0832233658	 0.0269536278	-0.0200209557	 0.365172
O	 1.1612277711	-0.5369962102	-0.064163641	-0.37251
C	-1.2337020202	-0.7578797022	-0.0568941938	 0.145981
N	-2.3622904346	 0.0631647639	 0.369507566	-0.585652
C	-1.4897340733	-1.4708803713	-1.4132341357	-0.089955
O	-1.5428582577	-2.7623795199	-0.7887739171	-0.271018
C	-1.1276115352	-2.212538062	 0.4798708445	-0.106054
H	 0.750440268	 1.9548589444	-0.0402534352	 0.260429
H	-0.9925251976	 1.768493446	-0.0320590228	 0.270323
H	-3.2355823916	-0.4179243215	 0.1750046733	 0.242151
H	-2.33073461	 0.206741314	 1.3761996759	 0.237384
H	-2.4326066396	-1.1957402223	-1.9035142909	 0.09943
H	-0.6648333914	-1.3910857757	-2.1301194066	 0.120572
H	-0.1095440132	-2.5122012514	 0.7443529725	 0.128937
H	-1.8273256107	-2.4609202785	 1.2875638603	 0.087743
