16
gdb 30610	4.56812	0.99224	0.81935	2.9151	76.22	-0.2241	-0.0363	0.1878	1329.9797	0.124964	-437.935817	-437.927397	-437.926452	-437.969618	30.402	
O	-0.0745783428	 1.4744111194	 0.0114509413	-0.396335
C	-0.0089817341	 0.0722509321	 0.0038296496	-0.183437
C	-1.4248866591	-0.4992583357	 0.0122946088	 0.289121
O	-2.4140118752	 0.2103944576	 0.0229658545	-0.344082
C	-1.5424387347	-1.9547444625	 0.006794772	 0.232109
C	-0.6359300091	-3.0086017018	-0.0047094035	-0.236908
C	-1.3792487047	-4.2084660614	-0.004369018	-0.14833
C	-2.7206159678	-3.8596353743	 0.0073277217	-0.069216
N	-2.8020626972	-2.5060216104	 0.0137457744	-0.272769
H	 0.8258176855	 1.8114270783	 0.004926316	 0.291514
H	 0.5074676347	-0.3236415165	-0.887086057	 0.111008
H	 0.5217910037	-0.3325847735	 0.8822158959	 0.110975
H	 0.4397223714	-2.9189876665	-0.0124211533	 0.102866
H	-0.9891194747	-5.2143474383	-0.0117223632	 0.104907
H	-3.6063744486	-4.4750755179	 0.0113475501	 0.130428
H	-3.6280759174	-1.9284013786	 0.0224764706	 0.278148
