25
gdb 87120	2.35706	1.20836	1.14215	1.2315	88.58	-0.2531	0.0667	0.3198	1306.1105	0.225617	-389.491896	-389.480743	-389.479799	-389.527043	42.976	
C	-0.057929382	 1.444315017	-0.2563326569	-0.422065
C	 0.172949598	-0.0370446759	-0.0513179858	-0.012906
C	 1.5582131507	-0.6428058296	-0.041521012	-0.363702
C	 0.7194375014	-0.6507345201	 1.2212942585	 0.343112
C	 1.1824238633	 0.2602397227	 2.348335437	-0.480538
C	 0.0852083576	-1.9910506431	 1.6730645005	 0.273667
C	 1.0387990005	-2.7899666087	 2.5751063232	-0.437384
C	-1.2541604569	-1.7478909855	 2.3778484054	-0.396026
O	-0.2538552637	-2.7983096563	 0.5367942983	-0.453886
H	 0.7386656141	 2.0582737094	 0.1733385499	 0.112076
H	-0.1035713133	 1.6784912269	-1.3259033473	 0.11633
H	-1.0044040634	 1.7684868648	 0.1915589614	 0.114821
H	-0.5641232208	-0.6673135957	-0.5402706878	 0.098673
H	 1.7158595365	-1.5613310102	-0.5972513143	 0.086007
H	 2.4108667348	 0.02968273	-0.0610687673	 0.100753
H	 1.6063748775	 1.1887336826	 1.9596546662	 0.115058
H	 0.3623992378	 0.5359925167	 3.0199704146	 0.116273
H	 1.9614796884	-0.2156389267	 2.9525557034	 0.11609
H	 1.2101929375	-2.2966655897	 3.5352197538	 0.119918
H	 0.6122564533	-3.7779243549	 2.7718222995	 0.118757
H	 2.0134377245	-2.922540048	 2.0900915699	 0.107679
H	-1.9417342161	-1.2227855362	 1.709409096	 0.122143
H	-1.7076602006	-2.7041440722	 2.6528877318	 0.115838
H	-1.1275714623	-1.1520320649	 3.2848878349	 0.111748
H	 0.5587473332	-3.1851873923	 0.195499437	 0.277564
