17
gdb 5085	3.34074	1.92388	1.24215	1.6215	72.26	-0.1845	0.0363	0.2209	976.6706	0.141815	-363.899138	-363.890534	-363.88959	-363.931974	31.136	
C	-0.0471347843	 1.5283875355	-0.0045885182	-0.512029
C	-0.0429592583	 0.0330848652	 0.0101650061	 0.241484
C	-0.1350163449	-0.8212741402	-1.0417209596	-0.128634
O	-0.1138530453	-2.1139863968	-0.6312598172	-0.190879
C	 0.0078557551	-2.1030868829	 0.7369909355	 0.321104
C	 0.0389750719	-3.4210363607	 1.4219482249	-0.498506
C	 0.048448251	-0.811390293	 1.1769393787	 0.009474
N	 0.0749271476	-0.3307434104	 2.4997950515	-0.609532
H	 0.9002136779	 1.9465803737	 0.3604289518	 0.118061
H	-0.2031542775	 1.9128437654	-1.0162221108	 0.125128
H	-0.8407500779	 1.9300574134	 0.6361118809	 0.135259
H	-0.2179651412	-0.6639675168	-2.1051894221	 0.123738
H	 0.7283933811	-4.1098735681	 0.921345676	 0.136087
H	 0.3789002629	-3.3045399815	 2.4559369106	 0.117521
H	-0.9451383826	-3.9064862031	 1.4524295622	 0.134149
H	 0.2937580939	-1.0558253829	 3.1718124116	 0.236695
H	 0.7357797907	 0.4284963532	 2.618713458	 0.240881
