21
gdb 91781	2.39146	1.6326	1.18587	2.8197	82.16	-0.2319	-0.0088	0.2232	1135.4167	0.182418	-387.125204	-387.11614	-387.115196	-387.158805	34.56	
C	 0.6843107526	 1.5360921051	 0.0007916625	-0.404054
C	 0.0551357713	 0.1382016509	-0.0860370658	-0.08282
C	 0.4821203216	-0.7317304594	-1.2972571252	-0.257993
C	 1.2433940174	-1.9297843022	-0.7279497784	-0.080001
C	 2.4511957521	-1.6173843332	 0.0966016638	-0.324235
C	 1.1272945175	-1.9399048159	 0.7879595711	 0.232079
C	 0.9962363559	-3.1606516414	 1.6629146582	-0.482757
C	 0.3553445133	-0.7116953119	 1.1659145399	 0.348327
O	-0.0290155032	-0.4456725622	 2.280102025	-0.344452
H	 1.7779009488	 1.493176428	-0.0356658108	 0.119109
H	 0.3498539812	 2.1649690368	-0.8300055188	 0.117057
H	 0.3950333229	 2.0191950281	 0.9382319253	 0.139306
H	-1.0328789612	 0.2684125649	-0.0877665071	 0.106781
H	-0.398562885	-1.0803487375	-1.8451356109	 0.105712
H	 1.0966331769	-0.168838003	-2.0087403505	 0.103133
H	 1.2213702874	-2.8658173281	-1.2755322404	 0.0899
H	 3.2147041026	-2.3822188812	 0.1937044362	 0.120275
H	 2.837788966	-0.6036139274	 0.1163589483	 0.120508
H	 1.6321282403	-3.9753111696	 1.303963127	 0.111228
H	 1.2858637024	-2.9228132261	 2.6908662895	 0.139359
H	-0.0373913006	-3.5213549245	 1.6885380612	 0.123539
