15
gdb 129641	2.34811	1.91402	1.05887	1.8198	77.18	-0.1931	-0.0441	0.149	1056.0157	0.114283	-450.104608	-450.09658	-450.095636	-450.136857	30.745	
N	 0.0033388506	 1.3845061496	 0.1087173113	-0.570073
C	-0.0508398849	 0.0083048429	 0.0573370713	 0.385703
C	-1.2079451399	-0.703383238	-0.0001893787	 0.130481
N	-2.4560156346	-0.0538062813	-0.0808450365	-0.619761
C	-1.1292794812	-2.1369811087	-0.062912559	 0.235506
N	-2.1952221648	-2.8603115441	-0.1708920265	-0.577421
C	 0.2476197891	-2.6269612992	 0.015233838	-0.024162
N	 1.3270907807	-1.9341887387	 0.114279221	-0.079476
O	 1.1809963758	-0.5536474863	 0.1276912085	-0.273123
H	 0.9009496278	 1.7676681502	-0.155283606	 0.265729
H	-0.7736580834	 1.8162482961	-0.3775746616	 0.270863
H	-2.6487767456	 0.5205128042	 0.7338604218	 0.246013
H	-3.1759615682	-0.7676922759	-0.1604058388	 0.266374
H	-1.9661016581	-3.8535435493	-0.2094010346	 0.209044
H	 0.4275083268	-3.7003948217	 0.0136862197	 0.134302
