21
gdb 106412	2.73894	1.35181	1.14941	1.7284	83.02	-0.2513	0.0908	0.3421	1182.2997	0.182188	-387.022692	-387.014182	-387.013237	-387.055805	33.245	
C	 0.0318914479	 1.5250575297	 0.06148201	-0.382544
C	-0.0597449565	-0.0011001538	-0.0511740054	-0.314008
C	-1.4714846038	-0.5272223938	-0.0307688773	 0.241237
C	-2.5639056688	-0.3432054235	 1.0857546611	-0.267923
C	-3.2546098261	-1.2317910728	 0.0038167994	-0.156109
C	-2.6268507997	-0.2825283956	-1.0618460766	-0.264343
C	-1.9298222406	-1.9970447521	-0.0611833205	 0.514815
C	-1.4493989635	-3.2286885703	-0.6658896899	-0.319924
O	-1.4907398205	-3.0380453154	 0.7743642711	-0.30926
H	 1.0739280796	 1.8579274171	 0.0443249374	 0.1136
H	-0.4897250414	 2.0164363406	-0.7665199693	 0.117582
H	-0.4172396489	 1.8800194059	 0.9947496294	 0.120675
H	 0.4281808713	-0.3321813901	-0.9777692675	 0.097656
H	 0.496124456	-0.4689708174	 0.7715075615	 0.111054
H	-2.360478222	-0.8119212619	 2.0508442042	 0.109677
H	-2.9668890594	 0.6667957461	 1.1987655144	 0.089489
H	-4.2665516904	-1.6343807723	 0.0209388928	 0.079066
H	-3.0353133868	 0.7304406731	-1.0839498352	 0.095147
H	-2.4863259751	-0.6844787425	-2.0691997905	 0.091063
H	-2.1538242397	-3.9652820441	-1.049881575	 0.117279
H	-0.4479485816	-3.2830520768	-1.0907000439	 0.115771
