15
gdb 130428	4.5732	0.95899	0.83166	3.3317	71.58	-0.2481	-0.0643	0.1838	1331.3448	0.114519	-450.155107	-450.14699	-450.146046	-450.188789	28.575	
N	 0.1930172734	 1.2994736631	-0.5459440528	-0.498183
C	-0.0152739016	 0.1036179503	 0.2750244021	-0.251337
C	-1.3942563666	-0.4816054512	 0.1813725384	 0.352645
N	-2.1906004824	-0.6365821415	 1.2173036821	-0.264874
N	-3.3185765497	-1.1659326563	 0.6532899591	-0.024256
C	-4.4731896216	-1.5095404164	 1.3777600518	 0.192753
O	-4.6040679835	-1.3777775395	 2.5574555232	-0.242189
C	-3.1273008984	-1.2911852608	-0.6974566529	 0.030747
N	-1.9392470158	-0.8728791375	-1.0312109387	-0.308333
H	-0.0339056625	 1.080403884	-1.5123553999	 0.242398
H	-0.4606213528	 2.0239142564	-0.261150961	 0.231336
H	 0.7111713829	-0.6541942326	-0.0401030914	 0.130502
H	 0.1919580853	 0.3386632815	 1.3220497238	 0.137595
H	-5.2425979239	-1.9198308611	 0.6984380359	 0.108759
H	-3.8842533926	-1.6885074583	-1.3582397698	 0.162437
