17
gdb 88290	2.98396	1.08986	1.03553	3.63	69.9	-0.2547	-0.0457	0.2091	1233.5514	0.133354	-458.92802	-458.919125	-458.91818	-458.962512	31.691	
C	 1.309758059	 1.6480872805	-0.0863308199	-0.434278
C	 0.0821644203	 0.8531608139	 0.2702510173	 0.082524
O	 0.1027572459	-0.5407212271	 0.0144386952	-0.231176
C	 0.0162245836	-0.1420362422	 1.3793801357	-0.075199
C	 1.2109837542	-0.4304401126	 2.2447310912	 0.347955
O	 2.3111549329	-0.6818240218	 1.8066594593	-0.312568
C	 0.9974027481	-0.3714898735	 3.7342956576	-0.017089
C	 0.2881338472	 0.7692073193	 4.353281608	-0.176537
O	-0.3352797563	-0.5001784767	 4.2386841639	-0.214261
H	 2.2163181569	 1.1261107571	 0.2215501752	 0.164756
H	 1.3443058219	 1.7996478531	-1.170208495	 0.134539
H	 1.275523784	 2.6353066327	 0.3869269979	 0.118111
H	-0.8706343486	 1.3296724633	 0.0269894753	 0.099941
H	-0.946430226	-0.3172665459	 1.8548505049	 0.123119
H	 1.7730892944	-0.8771252875	 4.30603872	 0.12511
H	 0.5680570221	 1.0721323323	 5.3605290848	 0.136729
H	-0.1229743795	 1.5549210154	 3.7214685686	 0.128325
