14
gdb 29104	3.0752	1.46678	0.9961	6.3982	69.85	-0.2088	-0.0396	0.1692	1100.0693	0.102215	-470.036959	-470.029101	-470.028156	-470.069504	29.616	
N	 0.1313647084	 1.3929179679	 0.3888550342	-0.587955
C	-0.0222429726	 0.0442994439	 0.0266515315	 0.28084
C	-1.1743152749	-0.6032893736	-0.16804948	-0.056946
O	-1.2201037986	-1.9614405495	-0.4085244543	-0.240116
C	-0.0763812749	-2.6967040125	-0.5886037134	 0.283329
N	-0.1083945306	-3.9238101307	-0.8844318695	-0.471011
C	 1.2634552231	-2.0079553169	-0.3819126263	 0.371237
O	 2.3197242426	-2.5877550484	-0.4537455729	-0.328345
N	 1.173199687	-0.6667816749	-0.0776075705	-0.386043
H	 0.6053058051	 1.9369350204	-0.3269048444	 0.254702
H	-0.7569217827	 1.8303314901	 0.5979359237	 0.256512
H	-2.1533477588	-0.1511444343	-0.1498078828	 0.127361
H	-1.0761486328	-4.2411825921	-0.9703199196	 0.230586
H	 2.0358129297	-0.2131285293	 0.1890734144	 0.265848
