16
gdb 74202	3.01909	1.38884	0.95776	7.7066	82.54	-0.1754	-0.0626	0.1128	1173.0666	0.123743	-437.902854	-437.894473	-437.893528	-437.935525	31.841	
C	-0.0605772403	 1.5301797372	 0.032907888	-0.515655
C	 0.0108129329	 0.024366474	 0.0229367986	 0.199164
C	-0.095556383	-0.7303824807	-1.12292539	-0.254979
C	-0.0096893773	-2.1900107775	-1.1679369351	 0.287712
O	-0.1056434007	-2.8605099789	-2.2050795062	-0.452804
C	 0.2015706923	-2.7361775514	 0.1297635772	-0.12223
H	 0.3079269445	-3.7874739291	 0.3529748537	 0.138046
O	 0.2855021171	-1.9716978522	 1.2418728567	-0.138721
C	 0.2057159368	-0.6627537304	 1.2311626487	 0.357658
N	 0.3985151073	-0.0713477088	 2.4613568849	-0.570114
H	 0.3110510452	-0.7028714516	 3.2451253929	 0.268601
H	-0.0847643143	 0.8035212064	 2.600836072	 0.269425
H	 0.8370925383	 1.9704861644	 0.4819439769	 0.143187
H	-0.1547474076	 1.9147195616	-0.9842210938	 0.146623
H	-0.9252434875	 1.8948396978	 0.6030455187	 0.129179
H	-0.2466945037	-0.2343828508	-2.0783457732	 0.114907
