20
gdb 47817	2.20844	1.85231	1.1853	3.784	78.69	-0.2357	0.029	0.2647	1083.5626	0.174205	-403.181708	-403.173818	-403.172874	-403.214036	31.493	
O	 0.0621660631	 0.0667686838	 0.3973218653	-0.374722
C	 0.0109304838	 1.2393216997	 0.0761296215	 0.358026
N	-1.1797737824	 1.8794642983	-0.1497275124	-0.287465
C	-1.3400406173	 3.2934391659	-0.4592631185	-0.158681
C	-1.0509975878	 4.2382947567	 0.7265884825	-0.194689
C	 0.2035370803	 3.8229899427	 1.5205092812	-0.220296
C	 1.3594896297	 3.4132390402	 0.6263488506	-0.007132
C	 2.2340110696	 2.2390859422	 0.9952818258	-0.30243
C	 1.2397662808	 2.104223646	-0.1247267966	-0.126945
H	-1.9982159793	 1.3117688822	 0.0115228872	 0.244214
H	-0.6838595997	 3.5495493682	-1.2969021783	 0.121279
H	-2.3636102013	 3.4404933692	-0.8151585303	 0.108799
H	-0.9351157509	 5.2529435824	 0.32567685	 0.098902
H	-1.9113701934	 4.2668734477	 1.4051543683	 0.099058
H	 0.5058515689	 4.6351379647	 2.1910266924	 0.099738
H	-0.0542805057	 2.9774391184	 2.1682076261	 0.113981
H	 1.8398346111	 4.2290312774	 0.0909984645	 0.08093
H	 3.2868561969	 2.2739662051	 0.738967306	 0.112419
H	 2.0162453971	 1.7084534651	 1.9164168629	 0.127854
H	 1.6334154866	 2.059994864	-1.1368196283	 0.10716
