16
gdb 37691	3.33048	2.25697	1.82312	2.3339	69.64	-0.229	-0.008	0.221	775.7006	0.129517	-396.870655	-396.865305	-396.864361	-396.900012	23.602	
N	-0.0486859699	 1.5231245899	-0.0305680449	-0.303853
C	 1.4476343262	 1.3773522982	 0.0060736367	-0.065215
C	 1.7258267315	 0.7050258663	 1.3649359904	-0.045127
C	 0.6394819389	-0.2991852211	 1.3734329754	-0.045126
C	-0.0203972827	 0.0203096872	 0.0175566295	-0.065215
C	 1.2208628437	 0.1420796621	-0.9359651079	 0.044746
N	 2.1909111654	-0.907787798	-0.9928723415	-0.219019
C	 2.550328197	-1.2867914702	 0.1662354739	 0.053453
N	 2.0650126949	-0.7515044256	 1.3808601631	-0.172964
H	-0.4174494755	 1.9293460601	 0.8319421132	 0.210158
H	 2.0558314106	 2.231830252	-0.2865560494	 0.081455
H	 2.0843398819	 1.2645659078	 2.2208255142	 0.108725
H	 0.0607924708	-0.6059936246	 2.2366539118	 0.108725
H	-0.9223765766	-0.5212115876	-0.2632571975	 0.081455
H	 0.9121356184	 0.4676761235	-1.9264875603	 0.10604
H	 3.2855049664	-2.0810942892	 0.2845528433	 0.121763
