21
gdb 96245	2.38018	1.54171	1.06899	1.2999	87.4	-0.2273	-0.0235	0.2038	1190.538	0.184239	-387.085675	-387.077199	-387.076255	-387.118494	33.305	
C	 0.0351814614	 1.55051759	-0.0051751159	-0.397768
C	 0.0045369496	 0.00589865	 0.0177884019	-0.054217
C	 0.5560539073	-0.5187795935	-1.3213283098	-0.071992
O	 0.1626274404	-1.8279278058	-1.6867236489	-0.259885
C	 0.5106568395	-2.8651755731	-0.7688835644	-0.121417
C	 1.9665240868	-2.8748137217	-0.3974453637	-0.089656
C	 2.4733793861	-2.1424334871	 0.6022593188	-0.072969
C	 1.7209507011	-1.2800600493	 1.5181367669	-0.103698
C	 0.6848149295	-0.4593908371	 1.2890753122	-0.044609
H	 1.059054964	 1.9172706871	-0.1378246944	 0.122596
H	-0.5758808495	 1.9411413692	-0.8247370194	 0.116751
H	-0.3472057475	 1.9686045584	 0.9308288104	 0.115664
H	-1.0524115661	-0.2952465402	 0.0751342251	 0.094999
H	 0.1585860974	 0.1088287731	-2.1255162213	 0.100701
H	 1.6494885894	-0.4095459576	-1.3332121757	 0.098292
H	-0.0997209165	-2.7856037999	 0.142118295	 0.101233
H	 0.2328068637	-3.7906585836	-1.2810640244	 0.104284
H	 2.6350052137	-3.4854806222	-0.9984096661	 0.092056
H	 3.5367001186	-2.2319632626	 0.82130245	 0.092641
H	 2.0707479622	-1.3270644666	 2.5495852883	 0.090308
H	 0.2782897588	 0.0367275322	 2.1712081854	 0.086686
