17
gdb 55048	4.16345	0.84688	0.77905	6.3123	74.91	-0.2598	-0.0376	0.2222	1460.3612	0.134521	-418.014139	-418.004805	-418.003861	-418.049351	32.771	
C	 0.269148165	 1.3109594307	-0.785814841	-0.488356
C	-0.0181234735	 0.3112284956	 0.3162313295	 0.416292
O	 0.8076186147	 0.0087367048	 1.1477142861	-0.303803
C	-1.411527902	-0.2657972267	 0.3175436524	-0.157118
N	-1.5718476637	-1.6405867239	 0.8317493672	-0.29664
C	-2.1655839333	-0.5542214384	 1.5867379641	-0.01368
C	-1.5772764549	-0.2847393545	 2.9640963743	-0.351835
C	-2.2297472963	-1.1053521739	 3.9831080681	 0.26043
N	-2.766197527	-1.7514644378	 4.776769666	-0.306544
H	-0.4584211404	 2.1306580933	-0.758512098	 0.142827
H	 1.2783743054	 1.7075395792	-0.6744682205	 0.149941
H	 0.1669551455	 0.8302094494	-1.7660080082	 0.146974
H	-2.0272130483	 0.0307144874	-0.5290838237	 0.095404
H	-2.2687964661	-2.1403282867	 0.2864471426	 0.247998
H	-3.2434332959	-0.4135938041	 1.5242938904	 0.112559
H	-0.5057367659	-0.496619724	 2.9405435086	 0.197524
H	-1.7043620535	 0.7706131195	 3.2319202223	 0.148026
