23
gdb 113446	2.41309	1.2219	0.96121	1.1315	86.92	-0.2308	0.0761	0.3069	1350.0685	0.204201	-388.256125	-388.246305	-388.245361	-388.29136	36.79	
C	 0.2302735184	 1.1119029722	-0.1508289476	-0.239799
O	-0.3903597018	-0.0247095553	 0.4145423471	-0.231442
C	 0.4091537149	-0.6634191545	 1.3604974875	 0.064995
C	 0.0114684462	-2.0545517519	 1.7420737395	-0.397812
C	 1.2736621894	-1.8263654997	 0.9469926977	 0.345822
C	 1.5454328628	-2.2696509642	-0.494896383	-0.312211
C	 3.066182167	-2.3723341641	-0.1430021889	 0.052403
C	 3.9611427086	-1.3357478893	-0.8109312142	-0.397967
C	 2.726725645	-2.0917279179	 1.3581258542	-0.323799
H	 1.1659574562	 0.8574799354	-0.6686957685	 0.111609
H	-0.4715287947	 1.5377919607	-0.8719844996	 0.126323
H	 0.4558928453	 1.8700773311	 0.6150075867	 0.105255
H	 0.7911429488	-0.0030144729	 2.1433278175	 0.075485
H	 0.0888575526	-2.3460633647	 2.7850466337	 0.109135
H	-0.8358660132	-2.4767817897	 1.210565774	 0.121009
H	 1.0875749526	-3.2282360181	-0.7570514063	 0.096217
H	 1.2860531354	-1.5452718474	-1.2727231711	 0.100711
H	 3.4781682675	-3.3717184104	-0.3091867139	 0.06778
H	 3.5749426741	-0.32147062	-0.6544094433	 0.115163
H	 4.9783663273	-1.3680411255	-0.4045637353	 0.112267
H	 4.0255340627	-1.503684201	-1.8918389603	 0.112721
H	 3.2596002579	-1.2472866338	 1.8092509919	 0.090786
H	 2.8521814273	-2.9630592187	 2.0086338623	 0.095349
