21
gdb 118787	4.33945	0.74668	0.71716	1.8338	86.71	-0.2389	0.0479	0.2867	1627.5264	0.179591	-387.043745	-387.033255	-387.032311	-387.07926	38.644	
C	-0.0240631047	 1.7070949349	 0.1288858758	-0.46669
C	-0.0632808782	 0.193847023	 0.0311652377	 0.335448
C	-1.3733244972	-0.4046226682	-0.4572507648	-0.246515
C	-1.7270962893	-0.0318356815	-1.8952629384	-0.075488
O	-2.9055177485	-0.7461322147	-2.2389611182	-0.419429
C	 1.2082989005	-0.5282848999	-0.3242385251	-0.320589
C	 0.6746162725	-0.6180070269	 1.1007908534	-0.262026
C	 1.3732539514	 0.0099863986	 2.1824952326	 0.327468
C	 1.9542042806	 0.5274685995	 3.1010047165	-0.451553
H	 0.8992166359	 2.0488543005	 0.6021948855	 0.131147
H	-0.0874979801	 2.170645498	-0.8612995252	 0.115413
H	-0.8618062921	 2.0813409325	 0.7283504248	 0.119743
H	-1.3287058594	-1.4985974962	-0.4031701705	 0.105212
H	-2.1959431589	-0.0916273704	 0.1977635335	 0.108018
H	-1.884681255	 1.0539552731	-1.9816719051	 0.088598
H	-0.8896782035	-0.295054452	-2.5617961167	 0.086971
H	-3.1616920794	-0.4927606963	-3.1303780487	 0.285698
H	 1.1503682405	-1.4266413197	-0.9299811254	 0.115132
H	 2.1073169669	 0.0594616406	-0.4720308528	 0.121127
H	 0.2049923201	-1.5620120122	 1.36398285	 0.110527
H	 2.4673042379	 0.9816410573	 3.911727141	 0.191788
