15
gdb 125187	3.39228	1.642	1.11414	5.0646	76.19	-0.1907	-0.0157	0.175	1024.0249	0.115229	-412.993375	-412.9859	-412.984955	-413.025553	28.121	
C	-0.0200515265	 1.5049393633	 0.0475474204	-0.509061
C	 0.0087726663	 0.0165885646	-0.0351259345	 0.197634
C	-0.004050518	-0.859375418	-1.1132216495	 0.233422
N	-0.0445707707	-0.8876694771	-2.4914043378	-0.3081
N	-0.0290165727	-2.1177520881	-2.8655261847	-0.105119
N	 0.0217421458	-2.9393946544	-1.7615716686	-0.391522
C	 0.0396802201	-2.1917821939	-0.6200776597	 0.333254
C	 0.07977035	-2.1545253541	 0.7559946331	-0.237573
N	 0.0594267517	-0.7997022815	 1.0663648999	-0.290444
H	 0.877662462	 1.9119249234	 0.5293742334	 0.130794
H	-0.0723138181	 1.9199490103	-0.9609558518	 0.160116
H	-0.8901021363	 1.8729630311	 0.6052986853	 0.130295
H	 0.0391735572	-3.9330460906	-1.9065498659	 0.269662
H	 0.1185813657	-2.905650479	 1.524436914	 0.124618
H	 0.0797946535	-0.451433706	 2.0109332064	 0.262024
