20
gdb 117903	3.48996	0.87564	0.75156	3.5223	85.2	-0.2413	-0.0229	0.2184	1560.8804	0.168191	-403.144233	-403.133464	-403.13252	-403.180869	37.637	
C	-0.0152386689	 1.5616922444	 0.0261655499	-0.380131
C	 0.0132520479	 0.031645531	 0.000388014	-0.171927
C	-1.3977936794	-0.5707556484	 0.0216384506	-0.158162
N	-1.4038711373	-2.032196657	 0.0295510602	-0.094121
C	-1.3740725158	-2.7012699135	 1.3161815694	-0.348198
C	-1.384468773	-2.6723961862	-1.177275501	 0.30952
O	-1.3597401073	-2.0808050952	-2.2465331924	-0.38376
C	-1.4033019071	-4.1312833641	-1.145501926	 0.188794
C	-1.4166500533	-5.3309155401	-1.2346809556	-0.394965
H	 0.9971954368	 1.9752908012	 0.0058176418	 0.117839
H	-0.5553917483	 1.9615854886	-0.8387156246	 0.124705
H	-0.5097637134	 1.9375277288	 0.9291992937	 0.112482
H	 0.5201950694	-0.3211373706	-0.903668002	 0.126109
H	 0.5875947453	-0.3440387301	 0.8565720734	 0.094548
H	-1.9445843848	-0.231416676	 0.9094164574	 0.096252
H	-1.9475508514	-0.2434338033	-0.8640398437	 0.140024
H	-2.2646874524	-2.4482828782	 1.9048130117	 0.128905
H	-1.3459402228	-3.7806878829	 1.1723026811	 0.155858
H	-0.4889613665	-2.4041923074	 1.8918242162	 0.12996
H	-1.4288671377	-6.3902460708	-1.3183257942	 0.206268
