13
gdb 24889	3.60533	1.27206	0.9403	6.1336	78.94	-0.2406	-0.0826	0.1579	1140.1464	0.090509	-415.639454	-415.63217	-415.631225	-415.671457	27.37	
O	-0.081774452	-0.0455343492	 0.0033283023	-0.377708
C	 0.0109766727	 1.159984416	 0.0095683409	 0.440166
N	-1.1731839792	 1.9436381707	 0.0295393687	-0.415369
C	-1.2038818346	 3.3053816289	 0.0369804451	 0.274023
C	-0.0078000308	 3.9744485143	 0.0240296989	-0.243436
C	 1.1663720798	 3.1756098146	 0.003562465	 0.037214
N	 1.2043727536	 1.8714472182	-0.0037404417	-0.311284
C	-2.4732771245	 3.9422556987	 0.0576426079	 0.233437
C	-3.5569257465	 4.4643713586	 0.0751704306	-0.38143
H	-2.036381659	 1.4179751787	 0.0385334979	 0.274455
H	 0.0296975937	 5.0533319675	 0.0290820072	 0.123119
H	 2.1326069075	 3.6813131079	-0.0072702186	 0.126481
H	-4.5104603608	 4.933893965	 0.0906474959	 0.220331
