21
gdb 57924	2.77198	1.0427	0.85699	1.7967	80.44	-0.2467	-0.0361	0.2106	1432.7003	0.178602	-424.27773	-424.2669	-424.265956	-424.3143	38.326	
C	 0.3075209505	 1.5029873042	-0.4740747339	-0.38817
C	 0.0793716567	 0.1306881815	 0.1606210844	-0.066319
C	 1.045089337	-0.9365932556	-0.4032095277	-0.406506
C	 0.2238577978	 0.1798654558	 1.677854575	 0.371685
O	 0.7438686153	 1.1056374228	 2.2580726638	-0.308949
C	-0.3016001834	-1.0378140185	 2.460358832	-0.385942
C	 0.8665045812	-1.8150886466	 3.0842020968	 0.388305
C	 1.4388249933	-1.2369612675	 4.3574362704	-0.479339
O	 1.2953621381	-2.8132155558	 2.5543716285	-0.294116
H	 1.3144485466	 1.8670770915	-0.2536941477	 0.133347
H	 0.1897312722	 1.4434942773	-1.5602325291	 0.110187
H	-0.4000042667	 2.2431445811	-0.0904047054	 0.120704
H	-0.9457257882	-0.2074544	-0.0468790022	 0.091363
H	 2.0836618175	-0.618529667	-0.2647588959	 0.129674
H	 0.9257198395	-1.9073375155	 0.0852119994	 0.149834
H	 0.8713758801	-1.0649187136	-1.4754515207	 0.122104
H	-0.9520367249	-0.648122183	 3.2496379355	 0.134957
H	-0.8626152191	-1.715944144	 1.8165669999	 0.126488
H	 0.7050080737	-1.3404091556	 5.1660514208	 0.140132
H	 2.3567881056	-1.7581262567	 4.6309710088	 0.139451
H	 1.6162962373	-0.1647190748	 4.2257028673	 0.171111
