12
gdb 21383	5.70091	2.17039	1.57194	0.0005	60.98	-0.2261	-0.0129	0.2132	722.5761	0.089037	-373.705404	-373.699893	-373.698948	-373.734759	21.439	
N	 0.0288394277	 1.3689526611	 0.0095578538	-0.362931
N	 1.2970457171	 1.8460185726	-0.0004643739	-0.200933
C	 2.1077290745	 0.7909829332	-0.0139391923	-0.13999
C	 1.3398262496	-0.3972403245	-0.0125345974	 0.310947
C	 0.0040819341	 0.0058393257	 0.002848164	 0.310947
C	-0.7638204172	-1.1823842142	 0.0043047965	-0.13999
N	 0.0468603772	-2.2374184665	-0.009430426	-0.200933
N	 1.3150650062	-1.7603517399	-0.0196210283	-0.362931
H	-0.7316387333	 2.0243962899	 0.0205923355	 0.274554
H	 3.1763430412	 0.936596496	-0.0237763873	 0.118354
H	-1.8324339806	-1.327997967	 0.014182273	 0.118354
H	 2.0755461335	-2.4157968764	-0.0303607576	 0.274554
