17
gdb 43992	3.09821	1.59084	1.42362	4.4884	70.67	-0.2595	0.0068	0.2663	962.7521	0.138021	-421.82773	-421.820825	-421.819881	-421.858899	27.814	
O	-0.151682216	 0.1051227056	-0.0246677643	-0.330863
C	-0.0071072342	 1.2777521956	 0.0912974712	 0.411153
O	-1.0080172066	 2.2315039523	 0.3088654019	-0.294534
C	-0.0338040865	 3.2877745353	 0.0498058683	 0.379756
C	 0.9892524162	 3.2966275455	 1.1169820038	-0.368922
C	 1.1048769773	 2.2888238538	-0.0363469034	 0.024224
C	 1.9489252038	 2.6023007931	-1.25587054	-0.297987
C	 1.4527282473	 4.0227377809	-1.6849238312	-0.22289
C	-0.0231691811	 4.1389409995	-1.1920157378	-0.297029
H	 1.7304059946	 4.0895564309	 1.110490405	 0.135776
H	 0.7138480063	 2.9382644506	 2.1020486693	 0.142551
H	 3.0278060399	 2.58345496	-1.0789093581	 0.115363
H	 1.736585795	 1.864311211	-2.0359056036	 0.127834
H	 2.0638652439	 4.792568937	-1.2021353411	 0.114484
H	 1.5405711735	 4.1878512809	-2.7618536747	 0.115264
H	-0.7101503268	 3.6849734083	-1.9139262085	 0.130027
H	-0.3330109067	 5.1771860696	-1.0433923369	 0.115795
