16
gdb 97616	2.45755	0.79379	0.62453	4.0396	80.6	-0.2694	-0.0571	0.2124	1753.0111	0.121165	-400.738754	-400.728522	-400.727578	-400.777213	33.813	
C	 0.0551064106	 1.5296747292	 0.0556021748	-0.368908
C	-0.0331262014	-0.002221523	-0.0772653305	-0.318856
C	-1.4042452035	-0.4976045459	-0.0359031005	 0.113358
C	-2.5510614162	-0.8625664673	-0.0011890165	 0.048486
C	-3.9092879303	-1.3975324254	 0.0369521125	-0.381458
C	-3.8188093667	-2.952949589	 0.0619546483	 0.181289
O	-4.2368173413	-3.6393316819	-0.8223919582	-0.21812
C	-4.656655594	-0.9423709984	 1.216907406	 0.283477
N	-5.2538902202	-0.6260541319	 2.1537191717	-0.307431
H	 1.1001248029	 1.8498430009	 0.0223991428	 0.123396
H	-0.4833558905	 2.0223676671	-0.7580205483	 0.13417
H	-0.3794061523	 1.8635986096	 1.0012158378	 0.137684
H	 0.4346242991	-0.3215901265	-1.0168036531	 0.140606
H	 0.5427237492	-0.477839499	 0.7263009233	 0.140778
H	-4.4718503335	-1.1326577528	-0.865810755	 0.17046
H	-3.3061738219	-3.3520312958	 0.9591108551	 0.121067
