20
gdb 121335	3.32939	0.94634	0.77257	4.1337	75.69	-0.2393	0.0313	0.2706	1469.1449	0.172301	-440.331325	-440.322025	-440.32108	-440.366033	33.884	
O	 0.1272077117	 1.4512542102	 0.3458007502	-0.421683
C	 0.0909921009	 0.0414465017	 0.1675599703	-0.080784
C	-1.3405369586	-0.4808629762	 0.0043392324	-0.209516
C	-1.4266020284	-2.00545839	-0.1259853119	-0.109878
C	-2.842196954	-2.5991106373	 0.0013986612	-0.233925
C	-2.7892464488	-3.8936536991	-0.8366934963	-0.172381
N	-1.7768284436	-3.5701534956	-1.8271187192	-0.303739
C	-0.9422009421	-2.5431486558	-1.4840137075	 0.416018
O	 0.0013658593	-2.1491810679	-2.1396362068	-0.386819
H	-0.0668239309	 1.8555315285	-0.5053716179	 0.281297
H	 0.7026366201	-0.2820968633	-0.6822448777	 0.129396
H	 0.5340933518	-0.3837205009	 1.076343416	 0.10076
H	-1.9288740639	-0.1541142042	 0.8702626084	 0.101367
H	-1.7976183191	-0.0167979459	-0.8804423391	 0.092176
H	-0.771471615	-2.4656154253	 0.6293253613	 0.09919
H	-3.1436376355	-2.7838270963	 1.0345041472	 0.110408
H	-3.5676423795	-1.907780029	-0.4412125166	 0.114205
H	-2.4963831294	-4.7588862112	-0.2241838842	 0.107725
H	-3.7487495317	-4.128568721	-1.3077612025	 0.115323
H	-1.5657060132	-4.1508282016	-2.6231079771	 0.25086
