16
gdb 47779	2.71552	1.46763	1.01295	7.0329	70.28	-0.2547	0.0058	0.2605	1126.7484	0.127179	-434.10302	-434.095078	-434.094134	-434.13595	29.419	
O	-0.0329013145	-0.0909368021	 0.110825939	-0.35316
C	-0.0498512583	 1.1201179776	 0.0755112102	 0.447248
N	-1.1918025422	 1.8557610141	-0.0026442676	-0.336604
C	-1.3006873521	 3.3046363929	 0.1193384071	-0.134756
C	 0.0043143281	 3.9535897664	-0.3222475528	-0.167451
N	 1.0899852592	 3.3251413437	 0.4206717667	-0.309701
C	 1.2690072818	 1.9328827628	 0.0100722011	-0.232584
C	 2.2961670037	 1.2942753814	 0.8389389483	 0.301398
N	 3.1462222244	 0.8464436723	 1.4785127114	-0.31656
H	-2.0332712854	 1.3003423618	 0.0658095064	 0.257594
H	-2.12707273	 3.6511244537	-0.5096567471	 0.118624
H	-1.5158735425	 3.591005025	 1.1570924756	 0.127721
H	 0.1144889676	 3.8544850062	-1.4177473273	 0.098095
H	-0.0186351642	 5.0192725147	-0.0812456568	 0.12186
H	 1.9605396169	 3.8315128817	 0.3043547306	 0.242215
H	 1.5960691876	 1.8328563578	-1.0436876448	 0.136062
