19
gdb 62719	2.45518	1.87168	1.36723	2.5356	80.21	-0.2437	0.0035	0.2472	1003.0446	0.158478	-385.884411	-385.876281	-385.875337	-385.916318	32.692	
C	-0.1191901843	 1.5953742238	 0.0003451099	-0.464559
C	-0.0222064056	 0.0726811068	 0.0051469058	 0.326572
C	-1.3796955363	-0.5446602727	-0.3431500527	-0.462453
C	 1.1755995549	-0.5938098786	-0.7860135781	-0.205378
C	 2.3961697096	-0.0339681524	-0.084844344	-0.10004
C	 2.0683001545	-0.0507340436	 1.2227638924	-0.100038
C	 0.6647125336	-0.6199182042	 1.2514757377	-0.205379
C	 0.9725959864	-1.792572276	 0.2306871327	 0.418934
O	 1.0291724518	-2.9762891805	 0.229705895	-0.31436
H	 0.8317134384	 2.0706063447	 0.2448449145	 0.123715
H	-0.4385806871	 1.9521867976	-0.9848832941	 0.115332
H	-0.8677033521	 1.9302500579	 0.7266967211	 0.115332
H	-1.7096834249	-0.2105127327	-1.3327481482	 0.119516
H	-1.3572402734	-1.6388091054	-0.3515112343	 0.137918
H	-2.1395297746	-0.2324335567	 0.3814305809	 0.119515
H	 1.1728966002	-0.7150290948	-1.8674848544	 0.077551
H	 3.3424440761	 0.2020044571	-0.5497473752	 0.110135
H	 2.6819015555	 0.1682276783	 2.084623675	 0.110135
H	 0.1528776674	-0.7671550786	 2.2004898959	 0.077552
