21
gdb 89861	3.25279	1.00098	0.86732	1.0846	90.65	-0.2341	0.0508	0.285	1418.2311	0.180826	-349.904445	-349.8951	-349.894156	-349.938757	35.987	
C	-1.0199373216	 1.0989006037	 0.011256053	-0.405322
C	 0.0142139451	-0.0132504734	 0.0893631728	 0.058864
C	 1.2563132617	 0.0660340955	-0.8535175688	-0.311515
C	 2.1335901189	-0.3027038712	 0.3461276831	 0.37325
C	 3.1123790273	-1.4283029995	 0.408116683	-0.348704
C	 3.6039307627	 0.0103050746	 0.5508131669	-0.272703
C	 4.3532271336	 0.6305109766	-0.500056173	 0.337821
C	 4.9635812413	 1.1655279004	-1.3890714177	-0.469348
C	 0.977466431	-0.0399739706	 1.3180656673	-0.318548
H	-0.5474886541	 2.081728786	 0.1216892196	 0.113446
H	-1.5439496695	 1.0878129811	-0.9510775137	 0.114735
H	-1.7726949214	 0.9999503445	 0.8015318811	 0.113215
H	-0.4757481923	-0.9861849964	-0.0196952267	 0.073121
H	 1.2744526267	-0.6111265147	-1.7114022327	 0.099503
H	 1.4481604462	 1.0836514751	-1.2105332835	 0.107834
H	 3.1418254197	-2.046353882	 1.3001169795	 0.114241
H	 3.360398528	-1.9437871868	-0.5136480193	 0.123593
H	 3.8834794481	 0.3136367981	 1.5568399688	 0.106863
H	 5.5113821703	 1.6310849175	-2.1699844549	 0.191856
H	 1.0511373159	 0.9383951781	 1.8059449247	 0.099906
H	 0.7883712624	-0.7983166066	 2.0832779205	 0.097892
