16
gdb 42376	2.595	1.09618	0.83301	2.4473	70.29	-0.288	-0.0099	0.2781	1357.4398	0.122596	-437.911934	-437.902874	-437.90193	-437.948333	31.261	
O	-0.4586878453	 0.4253631915	 1.9960722726	-0.349128
C	-0.0629397016	 0.7476862379	 0.9089713931	 0.46218
C	 1.4276866941	 0.8759999169	 0.5798452449	-0.466935
C	 1.7518018709	 1.7348021902	-0.5532117263	 0.283575
N	 2.0296151839	 2.4203793156	-1.4397859094	-0.303702
O	-0.8230517215	 0.9846532304	-0.1665661388	-0.227593
C	-2.231450863	 0.8791171501	 0.0101376242	 0.139526
C	-3.0225206544	 2.1502383237	-0.0301565796	-0.279702
C	-3.0392146053	 1.1902689614	-1.2042666935	-0.29731
H	 1.9312766993	 1.232183903	 1.4821079416	 0.187404
H	 1.8071510259	-0.1348062296	 0.3866827764	 0.187542
H	-2.5119917461	 0.0828460837	 0.6870516637	 0.130642
H	-3.8955634609	 2.225209707	 0.6078058786	 0.128874
H	-2.465293859	 3.0712442599	-0.1561364994	 0.136054
H	-2.4918718667	 1.4873555369	-2.0912955681	 0.141465
H	-3.9265706503	 0.5967665014	-1.3913700498	 0.127108
