19
gdb 86091	2.99722	1.19446	0.9723	1.1422	84.47	-0.2376	0.0214	0.2589	1264.8477	0.157744	-385.873855	-385.864698	-385.863753	-385.907465	34.948	
C	-0.1244964204	 1.561837868	 0.0789185733	-0.494852
C	 0.0059861267	 0.0737143394	 0.0138028523	 0.329907
C	 0.0395464147	-0.6871502808	-1.0802161832	-0.171605
C	 0.1253574909	-2.1662600444	-0.7459440456	-0.227748
C	 1.0292189827	-2.9499530985	-1.5790171388	 0.285392
C	 1.7991901779	-3.609507773	-2.2277241183	-0.445804
C	 0.5563167349	-2.1496178102	 0.7668288014	 0.117354
O	 1.9592192898	-2.1887441118	 0.9227814011	-0.436616
C	 0.0836493708	-0.7729194263	 1.26756376	-0.312003
H	 0.7291861783	 2.0066556937	 0.6054391453	 0.131435
H	-0.1825295018	 2.0078193445	-0.9174889565	 0.124419
H	-1.0220985872	 1.856595375	 0.6376832319	 0.125157
H	-0.018968606	-0.331787348	-2.1022597161	 0.0972
H	-0.8758640811	-2.6194801074	-0.8171632958	 0.108801
H	 2.462158841	-4.1844887641	-2.8260081865	 0.199434
H	 0.0831269551	-2.981680433	 1.3073700465	 0.064987
H	 2.3038541977	-2.8616676418	 0.3219337128	 0.283475
H	 0.7884559347	-0.3841404597	 2.0101409845	 0.119504
H	-0.8984359186	-0.8375254017	 1.7564292316	 0.101565
