20
gdb 11901	4.62033	1.43831	1.25766	0.1628	82.1	-0.2184	0.0275	0.246	1047.3604	0.17788	-311.87469	-311.866946	-311.866001	-311.906682	30.53	
C	 0.0384536003	 1.6010398358	-0.0123429689	-0.394543
C	 0.0269679034	 0.0684159837	 0.0258492575	-0.014788
C	 0.7229340355	-0.5944232264	-1.1989828397	-0.313503
C	 1.5112789872	-1.7841234859	-0.6324790877	 0.355137
C	 1.3558838039	-3.1943905501	-1.171675429	-0.310271
C	 2.6397956419	-2.4379082538	-1.3926526327	-0.315815
C	 1.5737097986	-1.5351731794	 0.8320963092	-0.140811
C	 0.7774510024	-0.5313945098	 1.1983244992	-0.084733
H	 1.0650483167	 1.9818187838	-0.0508484487	 0.114671
H	-0.4948552328	 1.9777299562	-0.8918873	 0.111227
H	-0.4435021127	 2.0246038062	 0.8755207817	 0.109702
H	-1.0239935164	-0.255432325	 0.0770979021	 0.077105
H	 0.0130634873	-0.8876629567	-1.9777719999	 0.094911
H	 1.4176815959	 0.1255924262	-1.6489602985	 0.098839
H	 1.3584367406	-4.0170933184	-0.4639840264	 0.109525
H	 0.6930228001	-3.3377560418	-2.0191149678	 0.110304
H	 2.8503156326	-2.0697934603	-2.3920970117	 0.109003
H	 3.5210807843	-2.7467595563	-0.8393059026	 0.108791
H	 2.183830618	-2.1376624443	 1.4973656165	 0.089116
H	 0.6347309433	-0.1818964636	 2.2155313174	 0.086133
