15
gdb 49220	3.37711	1.04848	0.91372	4.7563	76.53	-0.2337	-0.0503	0.1834	1245.9965	0.113765	-416.841488	-416.833444	-416.832499	-416.874795	28.988	
O	-0.0872515804	-0.0343927446	-0.1477068242	-0.296623
C	-0.0153612305	 1.1798623958	-0.1378685558	 0.059572
C	 1.2179709928	 1.9207135054	-0.024544523	 0.187139
C	 1.3434594357	 3.2643604398	 0.0253835825	-0.075126
N	 2.6417705715	 3.6793516178	 0.2210347781	-0.282922
C	 3.5409730613	 2.5286544552	-0.0086199038	-0.126549
C	 2.5902195618	 1.2944738984	 0.1283040523	-0.333946
C	 4.1726245964	 2.6143394025	-1.3362877861	 0.271409
N	 4.6749748066	 2.7111193777	-2.3725460109	-0.3086
H	-0.9285527808	 1.811552131	-0.2238813315	 0.057879
H	 0.5537806918	 4.0038140591	-0.025297426	 0.146316
H	 2.933493854	 4.5848078263	-0.1173488786	 0.264935
H	 4.3378844708	 2.5136583019	 0.7396799019	 0.144234
H	 2.7108982622	 0.8336129806	 1.1142629006	 0.137061
H	 2.7986808569	 0.5263757331	-0.6181295854	 0.155219
