20
gdb 8941	3.46305	1.25528	0.98644	3.0266	72.64	-0.2486	-0.0221	0.2266	1211.918	0.17299	-386.145238	-386.134975	-386.13403	-386.181148	35.225	
C	-0.0046474442	 1.4047353515	-0.0704209693	-0.239895
O	-0.0330740283	 0.008173137	 0.1173598754	-0.246772
C	-1.3192148335	-0.5842440175	 0.0131344092	 0.132966
C	-1.7589166467	-0.7250782388	-1.4468720921	-0.411117
C	-1.2363960927	-1.9495522705	 0.7288996725	-0.067345
C	-0.7350446931	-1.80564239	 2.1772392055	-0.418633
C	-2.6009954873	-2.6087528969	 0.756866926	 0.159768
O	-2.8655040818	-3.6920127258	 0.3038346612	-0.252775
H	 1.0182950673	 1.7329773285	 0.1297108559	 0.130507
H	-0.2693083996	 1.7007332123	-1.0955099153	 0.110444
H	-0.6850799205	 1.9212490333	 0.6245215622	 0.105453
H	-2.0483354497	 0.0471646236	 0.5528756806	 0.063392
H	-1.0455038111	-1.3462328567	-1.9968295972	 0.132487
H	-2.7455105353	-1.1939005365	-1.5166028117	 0.129593
H	-1.8209072393	 0.2487970709	-1.939859659	 0.118192
H	-0.564681225	-2.6032626728	 0.1627111577	 0.100307
H	 0.2196366762	-1.2782519133	 2.1834345238	 0.145814
H	-1.4443345343	-1.2322025534	 2.7858611562	 0.114171
H	-0.6045403622	-2.7858927693	 2.644199156	 0.126
H	-3.3822811889	-2.0019059755	 1.2775988723	 0.067443
