18
gdb 53021	4.85747	0.92474	0.88213	2.0586	86.33	-0.2271	0.036	0.2631	1379.8602	0.147676	-364.722478	-364.714227	-364.713283	-364.757184	30.689	
C	-0.0117586468	 1.5060525873	 0.0013371554	-0.515062
C	-0.0146408224	 0.0510577717	-0.0090499442	 0.392653
C	-0.0164080542	-1.1546871083	-0.0185821836	-0.436911
C	-0.0227193615	-2.5866124965	-0.0151888784	 0.240982
C	 0.4095902726	-3.4180673203	-1.2664937878	-0.281542
C	-0.469987902	-4.5281398132	-0.7026077765	-0.047922
C	-1.2626200046	-3.5855170747	 0.1162971308	-0.098728
N	-0.3656711634	-4.5504847989	 0.8011662513	-0.153198
C	 0.5767588071	-3.437635764	 1.1315664961	-0.184343
H	 0.5872977571	 1.8976665081	 0.8310362149	 0.149815
H	 0.4030612819	 1.9116375342	-0.9282081509	 0.149207
H	-1.0271863593	 1.9030707232	 0.1112084332	 0.150188
H	-0.0189770694	-3.0069402404	-2.1830377549	 0.115775
H	 1.4826635296	-3.5928698701	-1.3973624423	 0.099462
H	-0.7775196268	-5.4537155467	-1.1701308177	 0.102957
H	-2.3167296001	-3.4565107616	 0.3228262315	 0.101616
H	 1.6435076299	-3.6845231088	 1.0781667738	 0.098367
H	 0.3269828424	-3.0509175111	 2.1217569392	 0.116683
