18
gdb 89569	4.69875	1.02586	0.97775	1.3045	71.55	-0.2457	0.0222	0.268	1222.3785	0.148385	-439.086685	-439.078741	-439.077796	-439.119716	30.394	
O	 0.6446715623	 0.5814044748	-0.9153209444	-0.43119
C	-0.0421918196	-0.2664504878	-0.0353062817	 0.177519
C	 0.227614467	-0.1802504947	 1.4933397952	-0.340023
C	-1.2809508366	-0.4336730923	 1.7223316758	 0.408327
C	-1.5503252756	-0.0253964162	 0.2548484039	-0.340027
C	-1.720948942	-1.851317628	 2.1762694663	-0.251202
N	-2.5444144003	-1.6426744703	 3.3781591448	-0.260496
C	-2.561439205	-0.3899598349	 3.5602745165	 0.102215
O	-1.8948758819	 0.4282981027	 2.7111466995	-0.254829
H	 0.5150792724	 1.489375359	-0.6208702745	 0.278684
H	 0.1314455422	-1.2787834235	-0.4110713149	 0.099111
H	 0.9412797329	-0.8746336424	 1.943281189	 0.108907
H	 0.4857599879	 0.842953668	 1.7856699606	 0.108342
H	-1.7914441882	 1.0413289038	 0.1996166666	 0.108265
H	-2.2938231432	-0.5927418612	-0.3101785306	 0.108952
H	-2.3089587019	-2.3684026694	 1.4098647342	 0.11924
H	-0.8665088675	-2.4924673531	 2.4201485207	 0.119215
H	-3.0785486527	 0.1228430455	 4.3638708231	 0.13899
