17
gdb 29875	3.10664	1.42332	0.98818	7.9132	79.1	-0.2226	-0.0179	0.2047	1165.4927	0.136901	-418.070546	-418.06211	-418.061165	-418.103969	30.893	
C	-0.03376737	 1.4942004335	-0.0090738278	-0.34818
N	-0.0074108032	 0.0353083184	 0.0063532103	-0.105324
C	-0.0294534567	-0.668543874	-1.1798979997	 0.021986
C	-0.0067949334	-2.0127652333	-1.1968080522	-0.25883
C	 0.0418700534	-2.7639439567	 0.0589756072	 0.37339
O	 0.0634784509	-3.9785222816	 0.1126842524	-0.369415
N	 0.0629086169	-1.9813082069	 1.2355595482	-0.352828
C	 0.0392896948	-0.6924409341	 1.1840484713	 0.388396
C	 0.0634202387	 0.0864329537	 2.4729495209	-0.488785
H	 0.8612296764	 1.9148030866	 0.4584478559	 0.150445
H	-0.0692305617	 1.8312529561	-1.0455689067	 0.14756
H	-0.9151280392	 1.8832409419	 0.5089816351	 0.150449
H	-0.0656678026	-0.0623551586	-2.0779101265	 0.130252
H	-0.0242187989	-2.5580906097	-2.1315258521	 0.117511
H	 0.1001088423	-0.6290715081	 3.2923789375	 0.167538
H	 0.9368886641	 0.7450321008	 2.5330317725	 0.137905
H	-0.8278124519	 0.7137449121	 2.5848450035	 0.137931
