16
gdb 40045	3.63992	1.48562	1.25485	1.6691	68.06	-0.2494	0.0116	0.261	984.9683	0.125524	-437.860823	-437.853936	-437.852992	-437.892499	26.747	
C	-0.3304530742	 1.4109093253	 0.0438906188	-0.256577
O	 1.0104981908	 0.9066832586	-0.0868741967	-0.268062
C	-0.0450122884	-0.0215783892	 0.0322814801	 0.446496
C	-0.1198518224	-1.076716926	 1.1515158986	-0.347604
C	-0.510001401	-2.1334933467	 0.0892994079	 0.076688
O	-1.9112105662	-2.4825335788	 0.0807095652	-0.227703
C	-2.4685420795	-1.723434585	-0.8987103507	 0.114101
N	-1.7510432076	-0.9364268449	-1.5893375613	-0.257055
C	-0.3936750559	-1.0641116914	-1.0476920314	-0.121395
H	-0.5479696163	 1.9096680795	 0.9873563338	 0.11705
H	-0.7421132319	 1.8813746591	-0.8466102188	 0.133313
H	 0.8508300621	-1.2655483751	 1.6175304384	 0.12716
H	-0.8688952323	-0.9136749633	 1.9299022497	 0.121409
H	 0.0718410218	-3.0541094381	 0.0576646556	 0.100433
H	-3.536428927	-1.8684422347	-1.018764541	 0.145206
H	 0.352316358	-1.1874808491	-1.8352351082	 0.096539
