19
gdb 90197	2.952	1.73482	1.54715	1.8598	79.31	-0.2105	0.0584	0.269	955.4986	0.158729	-385.734883	-385.727586	-385.726642	-385.766101	30.114	
C	-0.5253492897	 1.3702397392	-0.0337952415	-0.406637
C	 0.0185219205	-0.0524201895	-0.0003921188	-0.070504
C	 1.2233351248	-0.3688011968	-0.985145846	-0.339394
C	 2.1948528236	-0.3751397621	 0.2299452002	 0.180993
C	 2.8136509384	 0.7962392823	 1.0263018095	-0.312209
C	 2.1323734752	-0.0462392921	 2.1305060302	-0.155492
C	 2.4438436882	-1.4050004902	 1.3671680115	 0.047885
O	 1.0838490318	-1.8988162997	 1.4006195206	-0.350985
C	 0.9646489395	-0.4494106767	 1.1701235265	 0.337881
H	 0.2694455729	 2.1191358596	 0.0279248107	 0.123159
H	-1.0683189816	 1.543711032	-0.9691087317	 0.120773
H	-1.2174088256	 1.5448100677	 0.7961821948	 0.1252
H	-0.8049423522	-0.7684758034	-0.0715871516	 0.098858
H	 1.1316014459	-1.3352931156	-1.4831435736	 0.124398
H	 1.4323474544	 0.3986884349	-1.7346983413	 0.10903
H	 3.9059258291	 0.8572834492	 1.0545302066	 0.098009
H	 2.392073843	 1.7903198166	 0.856917859	 0.104043
H	 2.1203668345	 0.1062056006	 3.2138977759	 0.078678
H	 3.2556907173	-2.117089336	 1.5487798489	 0.086314
