25
gdb 85850	2.03	1.38396	1.27708	1.483	87.69	-0.2484	0.0674	0.3158	1230.3348	0.226415	-389.493347	-389.482688	-389.481744	-389.527462	42.068	
C	-0.8189830047	 1.402322483	 0.1553072417	-0.452178
C	-0.0861311663	 0.0736941986	-0.0313491315	 0.301083
C	-1.0495799236	-0.9436922129	-0.6583572661	-0.439239
C	 1.2586422462	 0.12695066	-0.8222045934	-0.322582
C	 1.8578296789	-0.8768122347	 0.1890392127	 0.135907
O	 3.2106121059	-0.7835046288	 0.5656315481	-0.438835
C	 0.7251591156	-0.5097548429	 1.2078284096	 0.251445
C	 1.1992169401	 0.5717010183	 2.1862432247	-0.458644
C	 0.1195405563	-1.669546348	 1.9966212238	-0.46256
H	-0.170917077	 2.1870463922	 0.5538460703	 0.108273
H	-1.2112454393	 1.7569796186	-0.8049729159	 0.11114
H	-1.6725301802	 1.2950195	 0.8354805636	 0.11076
H	-1.4304483997	-0.5573593534	-1.6106005174	 0.109647
H	-0.5701822801	-1.9047776199	-0.8658923689	 0.115063
H	-1.9121143565	-1.1341059347	-0.0103948005	 0.112598
H	 1.2387391408	-0.1618265398	-1.8767111042	 0.09473
H	 1.7396203708	 1.1083157999	-0.7431119766	 0.084758
H	 1.7341938926	-1.9067443704	-0.1584307855	 0.084287
H	 3.3913738069	 0.1299780849	 0.8092444527	 0.277839
H	 1.651897077	 1.4351543049	 1.6869064281	 0.101383
H	 0.3689207767	 0.9493837214	 2.7912945933	 0.117104
H	 1.9472620206	 0.1548665072	 2.8687603769	 0.120857
H	 0.8526079377	-2.0647352006	 2.7092390861	 0.117801
H	-0.7580316899	-1.3512765228	 2.5723448473	 0.108424
H	-0.1876564388	-2.4963129402	 1.3508379413	 0.110939
