17
gdb 48984	3.21567	1.49182	1.36814	3.5092	67.26	-0.2614	-0.0368	0.2246	983.3699	0.136747	-458.972028	-458.964682	-458.963738	-459.00428	28.15	
O	-0.6033386685	 0.7659178069	 0.5915565851	-0.240029
C	 0.2372783781	 0.9657974002	-0.2430268981	 0.105941
C	 1.4079234813	 1.9098137789	-0.038629866	 0.431612
C	 1.5872568379	 2.678126155	 1.2675409526	-0.278593
C	 2.8699653492	 3.3285103783	 0.7068928877	-0.113485
C	 3.6505154455	 2.0589730302	 0.3160515253	-0.076005
O	 2.6160445858	 1.1743787927	-0.1790381916	-0.312549
C	 2.3055028389	 3.9247049828	-0.5968512091	-0.076012
O	 1.3557115999	 2.9226039816	-1.0343814488	-0.312533
H	 0.2246251517	 0.4728284773	-1.2365928817	 0.103874
H	 0.7749759733	 3.3783744089	 1.4653635917	 0.121166
H	 1.7494948342	 2.0264577111	 2.1267698744	 0.121211
H	 3.4108669279	 4.0291806502	 1.3419055445	 0.086572
H	 4.3872425273	 2.2328278378	-0.4760751849	 0.110791
H	 4.1512051661	 1.5908742525	 1.1719417175	 0.108623
H	 1.7835034982	 4.8753467097	-0.4351512592	 0.108621
H	 3.067094943	 4.064014166	-1.3721126392	 0.110795
