18
gdb 44078	3.74715	1.45638	1.20872	2.9188	77.2	-0.2503	0.0236	0.2738	1043.4615	0.14926	-401.917427	-401.91031	-401.909365	-401.948897	28.745	
N	-0.1119722477	 1.1902025326	-0.1598178108	-0.546513
C	-0.0797114321	-0.056558839	-0.035174523	 0.400845
O	 1.0061221849	-0.9160244415	 0.115205745	-0.301386
C	 0.1209944447	-2.0473760995	 0.258703034	 0.485463
C	 0.3374235094	-3.4646751148	-0.2207057064	-0.330136
C	-0.6235197308	-3.904090231	 0.9404204628	-0.23412
C	-0.4884898429	-2.4950788463	 1.6173096147	-0.087238
C	-1.6781705509	-1.5180083539	 1.4287703535	-0.256592
C	-1.1214451589	-1.1569964236	 0.0107815197	-0.225522
H	 0.8277869924	 1.590190135	-0.1357012108	 0.228393
H	 0.0649194926	-3.7105089719	-1.2502441031	 0.107876
H	 1.3623986042	-3.7985210671	-0.0333759107	 0.120618
H	-1.6387077341	-4.1245002912	 0.6017904529	 0.109724
H	-0.268023745	-4.740775753	 1.5427034887	 0.114891
H	 0.0733547976	-2.4803756203	 2.5511348987	 0.079602
H	-2.6654428287	-1.9866720642	 1.4157819005	 0.109206
H	-1.7019151018	-0.6743546921	 2.1217887782	 0.123084
H	-1.7750373126	-1.2366183281	-0.8569932639	 0.101806
