19
gdb 93880	2.05657	1.66388	1.04426	4.1352	76.1	-0.2324	0.0215	0.2539	1173.3019	0.159646	-419.215025	-419.205921	-419.204977	-419.249214	33.513	
C	 0.1191325696	 1.3694476562	-0.1682319452	-0.334224
N	-0.0921528602	-0.0261921616	 0.149776676	-0.047479
C	-1.4755894465	-0.4990899411	 0.1382491863	-0.161565
C	-1.372508097	-1.8729466319	 0.7936393299	-0.250182
C	-0.403004975	-1.6029398159	 1.9553914018	 0.125292
O	 0.2184145079	-2.7178995073	 2.5301163927	-0.424498
C	 0.5694700475	-0.5134261154	 1.3575662191	-0.172817
C	 1.8829065733	-1.0980427679	 1.0360070603	 0.301383
N	 2.8948303495	-1.597524233	 0.7844417514	-0.336503
H	 1.1900730146	 1.5757080966	-0.2578008193	 0.136345
H	-0.3459518176	 1.5979752875	-1.1320745318	 0.128422
H	-0.3036043351	 2.0579705394	 0.5876760212	 0.098035
H	-2.1524782996	 0.1574254206	 0.7180685678	 0.084384
H	-1.8528909914	-0.5316474514	-0.8889224691	 0.114189
H	-2.3286918888	-2.2702673312	 1.1391027719	 0.114458
H	-0.9259857561	-2.5920004472	 0.0977499647	 0.114478
H	-0.950078278	-1.1283535004	 2.7757725932	 0.10634
H	 0.8152935704	-3.1126531158	 1.8820830131	 0.294805
H	 0.7348595026	 0.2794780498	 2.104144886	 0.109139
