19
gdb 59748	2.69539	1.29927	1.08458	1.3351	70.84	-0.248	-0.0343	0.2137	1178.9161	0.158506	-460.182417	-460.173486	-460.172541	-460.216262	33.312	
C	 0.0267220865	 1.5628829772	-0.297875476	-0.422872
C	 0.0399492746	 0.0723157805	 0.0437175035	 0.116582
O	 0.7769230189	-0.1941327662	 1.2319164873	-0.441766
C	-1.3764544126	-0.5295118745	 0.1388569676	-0.125266
C	-1.4597426151	-2.0613817017	 0.1091977699	-0.119643
O	-2.6896815724	-2.3898954601	 0.7630252947	-0.250925
C	-2.8445922084	-1.4989328336	 1.8472566382	-0.175553
C	-2.067172131	-0.2363591855	 1.4735934542	 0.368111
O	-1.9660329679	 0.759853491	 2.1464724618	-0.32537
H	 1.0512827497	 1.9426805633	-0.3337924503	 0.124744
H	-0.4423147648	 1.7395236994	-1.2715525505	 0.113437
H	-0.5323051107	 2.1233372507	 0.457118569	 0.143017
H	 0.5816751888	-0.4687486903	-0.7422771873	 0.093688
H	 0.4120659739	 0.3749627482	 1.9208155104	 0.293172
H	-2.016546104	-0.1211091126	-0.655144296	 0.109974
H	-1.5009003705	-2.4845773052	-0.8962152826	 0.118137
H	-0.600708086	-2.491958132	 0.6458873434	 0.116081
H	-3.9068381997	-1.2930575326	 2.0124970363	 0.138949
H	-2.4233607295	-1.8999192761	 2.7846033665	 0.125505
