20
gdb 39386	2.35622	2.15342	1.44431	2.1772	78.44	-0.2426	0.0723	0.3149	956.76	0.17432	-403.083439	-403.07644	-403.075496	-403.114353	29.604	
C	-0.0029297374	 1.5423282396	-0.1146583251	-0.253523
C	 1.5295392479	 1.3277115764	 0.0223102867	-0.024767
C	 1.2027686933	 0.0582207286	 0.8870861567	-0.310089
C	-0.0469096569	 0.019821437	-0.0002628423	 0.347415
N	-1.1551230085	-0.8381407005	-0.3627536921	-0.443428
C	 0.0682116717	-0.8179685677	-1.2137729701	-0.094353
C	 0.185047372	-0.0954062245	-2.5302745677	-0.085718
O	 1.1706799539	 0.9554392176	-2.4657843677	-0.268438
C	 2.109368401	 0.9792617063	-1.391118608	-0.069871
H	-0.4285377833	 2.0174655675	 0.7743378419	 0.091875
H	-0.3725922861	 2.0239987197	-1.0175716076	 0.11956
H	 2.1197173559	 2.1076605029	 0.5085857982	 0.067294
H	 1.8899471106	-0.7923100884	 0.8493447599	 0.092781
H	 1.0063689087	 0.3353652603	 1.9279967966	 0.098179
H	-1.1793941612	-1.7024727045	 0.1739475561	 0.232874
H	 0.7161862087	-1.6865731533	-1.110704229	 0.088904
H	 0.4637865918	-0.7835042457	-3.3398094512	 0.094446
H	-0.7646150419	 0.3787997624	-2.7992434694	 0.118517
H	 2.8076642929	 1.7667300269	-1.6884175883	 0.110068
H	 2.6821032071	 0.0404569395	-1.3418135475	 0.088272
