18
gdb 90203	3.02443	1.7614	1.58273	1.7931	75.47	-0.206	0.0554	0.2614	925.2373	0.147066	-401.765762	-401.758579	-401.757635	-401.796903	29.481	
C	-0.4203607991	 1.4206241622	 0.0445123669	-0.39925
C	 0.017243064	-0.038444348	-0.0112979234	-0.083128
C	 1.308420959	-0.334190799	-0.8915949562	-0.342296
C	 2.1225497816	-0.4834157878	 0.4146180406	 0.316778
O	 2.601474261	 0.7261166673	 1.1000802148	-0.343971
C	 1.9414270239	-0.0356339847	 2.1477817601	 0.039893
C	 2.3954489624	-1.4547770317	 1.6110524112	-0.122597
N	 0.9945881578	-1.9945780523	 1.6585204189	-0.381284
C	 0.8132452903	-0.5607462507	 1.2252463172	 0.203086
H	 0.422664981	 2.0649261133	 0.3053026972	 0.144723
H	-0.8147446693	 1.7415475118	-0.9257362824	 0.113964
H	-1.2061989711	 1.5614590997	 0.7935316814	 0.122098
H	-0.8332788845	-0.6826167724	-0.2540668109	 0.090038
H	 1.2423853895	-1.2565567366	-1.4732143528	 0.119329
H	 1.6514151389	 0.4715936889	-1.5444679599	 0.129996
H	 1.9557391765	 0.3630543638	 3.1660201376	 0.097665
H	 3.2723982215	-2.0492397872	 1.88677	 0.086598
H	 0.8534404767	-2.6198949267	 0.8591739096	 0.208358
