18
gdb 47805	2.28449	1.93409	1.2126	2.3112	72.51	-0.2467	0.0025	0.2491	1027.2944	0.149777	-439.088626	-439.081121	-439.080177	-439.120574	29.233	
O	 0.0865704708	 0.1030140687	 0.8045947097	-0.3348
C	 0.0124093801	 1.1475657649	 0.1990099297	 0.337233
C	-1.2945737924	 1.8544007451	-0.1303822204	-0.288536
C	-1.5782522232	 3.0302289587	 0.8263093922	-0.090413
O	-0.6842875336	 4.122749942	 0.7091039684	-0.2389
C	 0.6352539204	 3.8467312639	 1.1490710214	-0.104116
C	 1.4702227679	 3.1753933385	 0.0785767111	-0.029378
C	 2.3515808093	 2.0076340995	 0.434289889	-0.253453
N	 1.1311270042	 1.814915157	-0.3091196108	-0.068252
H	-1.2673395339	 2.2316152181	-1.1573253287	 0.125839
H	-2.1023434666	 1.1240478857	-0.0357020926	 0.126109
H	-2.5673774939	 3.4386044811	 0.6015727773	 0.119232
H	-1.5906583412	 2.66097987	 1.8644664961	 0.106617
H	 1.0824780423	 4.8105629638	 1.4137855449	 0.116925
H	 0.6129359952	 3.2223305294	 2.0565748069	 0.102226
H	 1.7657760269	 3.8190465417	-0.7480049561	 0.107287
H	 3.2753487694	 1.8471313482	-0.1138748636	 0.129867
H	 2.3608698484	 1.6668345736	 1.4670626556	 0.136515
