23
gdb 64326	2.34317	1.39266	1.12763	2.9764	85.19	-0.2325	-0.0088	0.2237	1218.8849	0.205852	-388.342983	-388.333689	-388.332745	-388.37648	36.56	
C	 0.0250358481	 1.5365523519	 0.0119796557	-0.420168
C	-0.0465411736	 0.0015185413	-0.0117713642	 0.259041
C	-1.5251763722	-0.4303424422	 0.0341144242	-0.412538
C	 0.645824455	-0.5235746622	-1.2915617608	-0.200195
C	 0.7648728826	-2.052655855	-1.346087428	-0.229361
C	 1.4789984556	-2.6107812072	-0.099044959	-0.284384
C	 0.8531049415	-2.0785522088	 1.1822840815	 0.380361
O	 0.5054797821	-2.7989525854	 2.089671821	-0.312304
C	 0.6985068062	-0.564351327	 1.2281175355	-0.306214
H	 1.0623312914	 1.8861451601	-0.0326744809	 0.10868
H	-0.5103969105	 1.966337434	-0.8420201888	 0.110979
H	-0.425978287	 1.9393337884	 0.9252546147	 0.113104
H	-2.0608366699	-0.080944865	-0.8552134679	 0.110706
H	-1.6427608361	-1.5165212328	 0.0920375735	 0.123872
H	-2.0224988179	-0.0062983402	 0.9127512701	 0.117509
H	 0.1032588375	-0.1600453296	-2.1726152337	 0.093693
H	 1.6525052307	-0.0859543893	-1.3478627309	 0.089342
H	-0.2302714564	-2.5052422866	-1.4248680587	 0.111863
H	 1.3098141132	-2.3534675102	-2.2471170314	 0.101663
H	 1.4681646345	-3.7027974571	-0.0699075268	 0.115473
H	 2.5289350855	-2.2843527796	-0.1140375805	 0.112415
H	 1.7078395445	-0.1294230521	 1.259690908	 0.105878
H	 0.1893957451	-0.2937090155	 2.1574950374	 0.110584
