14
gdb 19006	5.50627	1.96062	1.74476	4.3497	60.72	-0.2651	0.0015	0.2666	740.9267	0.109732	-382.531335	-382.525986	-382.525042	-382.560676	21.741	
O	-0.0630305278	 0.0091627619	-0.0407308885	-0.341331
C	 0.011767841	 1.1994058737	-0.0052939871	 0.448174
O	-1.075400325	 2.0462489589	 0.0062529428	-0.250244
C	-0.4584907727	 3.3391175334	 0.0519458295	 0.128445
C	 0.7832235318	 3.3652026531	-0.880303503	-0.071024
C	 1.4778449915	 4.3333402509	 0.1055158974	-0.259927
C	 0.7593837121	 3.3094705704	 1.0149882355	-0.070997
C	 1.187782462	 2.1512021769	 0.0376942764	-0.195456
H	-1.207358473	 4.1275133931	 0.0657443821	 0.105604
H	 0.7891705651	 3.3769719482	-1.9702414182	 0.095196
H	 2.569009852	 4.3086449298	 0.1185167113	 0.112263
H	 1.1068784485	 5.3621603943	 0.1310944101	 0.103675
H	 0.737940926	 3.2571788526	 2.1035399374	 0.095201
H	 2.1933950984	 1.7392336928	 0.0382698444	 0.100422
