15
gdb 24267	4.02256	1.59682	1.24303	3.2968	70.35	-0.2143	0.0163	0.2306	951.4091	0.116403	-416.820579	-416.814351	-416.813407	-416.85108	25.178	
C	-0.05786279	 1.5093521045	-0.0072814137	-0.380765
C	 1.4390448387	 1.8773443586	-0.0136232502	 0.063409
O	 2.1928889014	 1.444095205	 1.1208975026	-0.251943
C	 2.2791209875	 0.6550585955	-0.0909277028	-0.145838
C	 1.2989910771	-0.4452732145	-0.1156428453	 0.328759
C	 0.0102870238	 0.0041375172	-0.0334596128	 0.27244
N	-0.8767735805	-1.0297393751	 0.083006681	-0.338342
C	-0.1171724929	-2.109161666	 0.0584463376	-0.011641
N	 1.2200223297	-1.8135428988	-0.0484757551	-0.385568
H	-0.554880358	 1.9009694544	 0.8867088993	 0.134359
H	-0.5651503092	 1.9387403378	-0.8793620278	 0.116564
H	 1.7572511352	 2.825375239	-0.4396909606	 0.098415
H	 3.2580231001	 0.6229023064	-0.5583359612	 0.100655
H	-0.4702537322	-3.1290156942	 0.0957772912	 0.130494
H	 1.9740551794	-2.4790315497	-0.0728379824	 0.269001
