18
gdb 125409	2.98421	1.01426	0.80772	1.9522	73.99	-0.2534	-0.0064	0.247	1401.4555	0.146948	-439.083244	-439.073973	-439.073029	-439.118569	32.697	
C	 0.0070046089	 1.5191185589	 0.0184535183	-0.51492
C	 0.0035109747	 0.0230418769	 0.014112335	 0.078769
C	-0.0360573766	-0.8279389952	-1.0430728603	-0.000035
O	-0.0383642727	-2.1062782735	-0.6359413827	-0.168982
N	-0.0016727296	-2.1285793223	 0.7532598889	-0.205523
C	 0.0235999669	-0.8722403403	 1.1347241307	 0.306662
C	 0.1004796289	-0.5343692146	 2.5918390308	-0.32385
C	 1.5419658643	-0.2504393058	 3.0537892378	-0.061027
O	 1.603077185	 0.143101239	 4.4117483098	-0.412715
H	 0.9294520246	 1.9245956163	 0.448693819	 0.13923
H	-0.0846145179	 1.9139113453	-0.9967196061	 0.132069
H	-0.8255905674	 1.9206844998	 0.6067521288	 0.138064
H	-0.0706091276	-0.6736109948	-2.1110225859	 0.146847
H	-0.514103611	 0.3451640267	 2.8117236234	 0.116775
H	-0.3030623655	-1.3740883978	 3.1678709492	 0.119155
H	 2.1680024565	-1.1319859725	 2.8519173115	 0.108106
H	 1.9632685391	 0.5837708871	 2.4829098898	 0.116063
H	 1.3465299295	-0.6121310933	 4.950688802	 0.285311
