19
gdb 78702	5.22474	1.08421	1.07335	1.4481	80.36	-0.2478	0.0705	0.3183	1180.4816	0.159456	-385.788199	-385.780758	-385.779814	-385.819754	30.524	
O	 0.2464383946	 1.4377343113	-0.1684747258	-0.449973
C	 0.0958761271	 0.0450819907	-0.06584346	 0.137547
C	 0.0588195169	-0.6345799037	 1.3175685597	-0.085466
C	-1.4641639946	-0.2763632232	 1.5322331888	-0.182935
C	-1.3104613921	-0.5843059972	-0.0090074975	-0.085462
C	-0.7571697075	-1.8491518099	 0.7428745133	-0.153225
C	-1.8130941989	-1.728210937	 1.8373715603	 0.434747
C	-2.0185408943	-2.4620133208	 3.1192582316	-0.355615
C	-3.1148788865	-2.4217461472	 2.0570954435	-0.355612
H	-0.3501807942	 1.8540161843	 0.4631709553	 0.281273
H	 0.7872787269	-0.3872665497	-0.7958893786	 0.083277
H	 0.8217656745	-0.6851005417	 2.0956472791	 0.073433
H	-1.8711211425	 0.6293028011	 1.9866125696	 0.067722
H	-2.1131405254	-0.5773441209	-0.7477247807	 0.073433
H	-0.3368019666	-2.7404100187	 0.2751991876	 0.073272
H	-1.4978387255	-3.4023550484	 3.2719902433	 0.111371
H	-2.1755941703	-1.8907263165	 4.0291021368	 0.11042
H	-3.9971367776	-1.8238145152	 2.264338064	 0.11042
H	-3.3191535041	-3.3354599473	 1.5074604397	 0.111371
