21
gdb 122287	4.56805	0.78162	0.75694	1.4639	80.43	-0.2337	0.0743	0.3081	1604.9959	0.18082	-424.149875	-424.140581	-424.139637	-424.185398	33.898	
C	 0.2225092429	 0.98603794	-0.9521688271	-0.385967
C	-0.1329261729	 0.0045544453	 0.1512333778	-0.017403
O	-1.3259126068	-0.6648601685	-0.2094816657	-0.251393
C	-1.7491636383	-1.6044792463	 0.7507515137	-0.214738
C	-3.0139352069	-2.23443248	 0.2447335946	 0.419429
C	-4.413225538	-1.6055564669	 0.0185313791	-0.244838
C	-4.5131959319	-3.1430012403	-0.104737503	 0.046992
C	-3.2406737799	-3.1556604636	-0.9819449404	-0.24484
O	-3.6511681274	-3.2679576878	 1.0992619202	-0.353171
H	 1.1433935804	 1.5216420494	-0.7031620947	 0.116146
H	 0.3713108866	 0.460518312	-1.8996753609	 0.127298
H	-0.5792316995	 1.7173836488	-1.0878843009	 0.127294
H	 0.680668459	-0.7255261749	 0.2990638294	 0.088131
H	-0.2699150059	 0.5311976227	 1.1107594505	 0.08813
H	-0.9881924052	-2.386481955	 0.9115386818	 0.098464
H	-1.9418744427	-1.125271793	 1.7252722216	 0.098461
H	-4.8767480247	-1.1812019522	 0.9102006103	 0.10302
H	-4.5652584121	-1.0011899851	-0.8782903484	 0.100423
H	-5.3962281938	-3.7793684586	-0.1535536675	 0.09511
H	-3.2858088986	-2.6926353916	-1.9699858552	 0.100432
H	-2.6768536843	-4.0893998444	-0.9667765053	 0.103022
