20
gdb 75424	2.88056	1.24458	0.96603	3.6783	81.7	-0.2356	0.013	0.2485	1263.4459	0.172473	-403.199132	-403.190318	-403.189374	-403.232831	33.466	
C	-0.029633198	 1.5873162068	 0.0856745847	-0.464613
C	 0.005534592	 0.0834459167	-0.0277947919	 0.313133
C	 0.0037790521	-0.5061537312	-1.2263753724	-0.141055
C	 0.0000558239	-1.9856098284	-1.5506509291	-0.234749
N	-0.8170758518	-2.827702099	-0.6893062172	-0.284492
C	-0.6886423888	-2.978790752	 0.6610428864	 0.380317
O	-1.4116292346	-3.7224334131	 1.2994782662	-0.372508
C	 0.3948880407	-2.1236654176	 1.302061158	-0.323252
C	 0.038356232	-0.6274791205	 1.3082777228	-0.283876
H	 0.8578726505	 1.9649278372	 0.6095020415	 0.123606
H	-0.0805873944	 2.0695353182	-0.8936319774	 0.120491
H	-0.897808255	 1.9160699203	 0.67149419	 0.126751
H	 0.0169256119	 0.1368232697	-2.1041197063	 0.082552
H	-0.3909318754	-2.1109111099	-2.5639722675	 0.118148
H	 1.0331740759	-2.3663944985	-1.589029154	 0.123363
H	-1.5560843589	-3.3732939084	-1.1055261851	 0.245668
H	 0.502149866	-2.4805840687	 2.3275819564	 0.12441
H	 1.3537385404	-2.2713864872	 0.7912804915	 0.112144
H	 0.7660862875	-0.1050399101	 1.9438703706	 0.108283
H	-0.9286007362	-0.4887562845	 1.8136164128	 0.125681
