15
gdb 43295	3.01746	1.83179	1.39316	4.2621	71.53	-0.2456	-0.0677	0.1779	907.2917	0.113156	-420.537703	-420.531277	-420.530333	-420.568353	26.112	
O	 0.0754134649	 0.0343184133	 0.2453148098	-0.308753
C	 0.0195543307	 1.2166315049	 0.0358027148	 0.264543
C	-1.2263402606	 2.0793062676	-0.0780400821	-0.142887
C	-0.9810970187	 3.3097549776	-0.5737546039	-0.157859
C	 0.4626680466	 3.3823969084	-1.0058978287	-0.045613
C	 1.7972288513	 3.9088663534	-0.3618159028	-0.013647
C	 1.3949786149	 3.3319443409	 0.9902422902	-0.249941
C	 1.0814566792	 2.2857506503	-0.1397795579	 0.32172
O	 2.4144285849	 2.5751210176	-0.7100071255	-0.372916
H	-2.1930145681	 1.6834392699	 0.2100514005	 0.128237
H	-1.7340198363	 4.0750014375	-0.7334732176	 0.120805
H	 0.5829148446	 3.2082423058	-2.0785991792	 0.116069
H	 2.3975287656	 4.7833057992	-0.6139655962	 0.104648
H	 2.222903641	 3.0469856099	 1.6379457284	 0.123879
H	 0.5522914801	 3.7762149735	 1.5212773903	 0.111715
