18
gdb 125223	5.66968	0.93216	0.85344	4.0658	80.43	-0.2172	0.0158	0.2329	1375.5827	0.149919	-398.132858	-398.124366	-398.123421	-398.167092	30.857	
C	-0.0801844109	 1.4941505146	 0.1151092042	-0.502434
C	-0.0044682794	 0.0144271211	-0.0736255392	 0.399227
C	-0.0558413122	-0.7740771036	-1.2068030176	-0.409224
C	 0.0680104664	-2.1061764366	-0.7461549297	 0.382545
N	 0.1819440191	-2.1465772704	 0.58062522	-0.322791
N	 0.1407167014	-0.852203386	 0.9614733959	-0.251403
C	 0.0797442518	-3.3534561805	-1.5413469984	-0.100227
C	 1.0970045145	-4.4076346111	-1.2572452515	-0.229328
N	-0.3100858025	-4.6239871642	-0.9043704809	-0.320304
H	 0.8346740747	 1.8953862412	 0.5662043341	 0.138081
H	-0.2187417027	 1.9867299912	-0.8492602238	 0.145557
H	-0.9191374978	 1.7806078373	 0.7596592112	 0.137475
H	-0.1662605172	-0.4337443215	-2.2242012337	 0.101511
H	 0.1948345742	-0.6326249789	 1.9418574876	 0.268823
H	-0.2743682965	-3.2402860234	-2.5626967799	 0.086151
H	 1.4714509335	-5.030669629	-2.0655250782	 0.112241
H	 1.8066863468	-4.1974718924	-0.4621350583	 0.120072
H	-0.4329165731	-4.4402579881	 0.0903307583	 0.24403
