15
gdb 71025	4.19301	1.74038	1.44625	2.1372	67.63	-0.241	-0.0276	0.2134	865.1832	0.113038	-416.658273	-416.651949	-416.651004	-416.68848	26.397	
O	-0.0099862059	 1.3620161856	-0.0042579815	-0.459174
C	 0.0254517511	-0.0112635298	 0.0273761259	 0.350375
C	 0.698123597	-0.9628354419	 1.1245366112	-0.415876
C	-0.0302134368	-1.8894824677	 0.1354783554	 0.331875
N	-0.4662436808	-3.2153119173	-0.3610523323	-0.283604
C	-1.123876613	-2.80083672	-1.3778632716	 0.011812
N	-1.1344629494	-1.3104617793	-1.561682052	-0.239016
C	-1.2095858681	-0.9155197083	-0.0707842869	-0.048826
C	 0.3120064283	-1.0331618015	-1.1016009215	-0.085955
H	 0.8848575779	 1.6960189288	-0.1298712418	 0.290656
H	 1.7908803296	-1.0011050278	 1.1367664166	 0.109081
H	 0.2925631581	-0.8883379804	 2.1362793408	 0.119382
H	-1.6489742734	-3.4374125649	-2.0806686603	 0.131561
H	-2.1485769487	-0.8734520207	 0.4821099063	 0.097123
H	 1.1700782841	-1.1349816348	-1.7682665684	 0.090586
