17
gdb 83857	2.25362	1.84012	1.3854	4.2501	67.86	-0.2548	-0.0067	0.2481	978.2139	0.13745	-458.981836	-458.974219	-458.973275	-459.014017	29.535	
O	 0.0892140073	 1.3767789604	 0.0109278501	-0.416846
C	-0.0205302031	-0.0067156095	-0.0173912316	 0.129652
C	-1.344662386	-0.7002577356	 0.0752115538	-0.110395
C	-2.5959485983	 0.1686796388	 0.1006143616	-0.255303
C	-3.049209306	 0.511672251	-1.3129945122	-0.082731
O	-1.9554116902	 0.9812266127	-2.1349686641	-0.256269
C	-0.9592563919	 0.0637589521	-2.3968296674	 0.402641
O	-0.4249367591	 0.0542756529	-3.4689406924	-0.31499
C	-0.5529800598	-0.7678861461	-1.2373240029	-0.233386
H	-0.5068749296	 1.7635491496	-0.643366943	 0.30101
H	 0.8314501561	-0.4557124842	 0.4809315197	 0.121044
H	-1.3789836296	-1.6201939476	 0.6490808054	 0.102417
H	-3.4093239298	-0.3499566602	 0.6164259512	 0.116297
H	-2.3937069742	 1.0890687043	 0.660831717	 0.125846
H	-3.4967822067	-0.3619030431	-1.8019818913	 0.121913
H	-3.7817682397	 1.3213315473	-1.3259711608	 0.127902
H	-0.0400833994	-1.680557153	-1.5128741633	 0.121199
