20
gdb 96305	1.99794	1.74431	1.0939	3.4387	76.24	-0.2521	0.0293	0.2814	1148.6901	0.172939	-440.296595	-440.288019	-440.287075	-440.330339	32.918	
O	-0.2612879759	 1.177870624	-1.0347256562	-0.427602
C	-0.1234402011	 0.1767102238	-0.0375539692	 0.125997
C	-1.4013040729	-0.6586108763	-0.1483669061	-0.190496
C	-1.4832267467	-1.8960487088	 0.7533962156	-0.230193
C	-0.2810389772	-2.8501299561	 0.6275359237	-0.08157
O	 0.2780659281	-2.8920432832	-0.6888982966	-0.245205
C	 1.0407881066	-1.8455690042	-1.135185903	 0.397459
N	 1.6040579366	-1.8865134148	-2.2690957546	-0.512444
C	 1.1825321701	-0.6448906668	-0.232240683	-0.319714
H	 0.5327476486	 1.721257254	-1.0346055915	 0.283893
H	-0.0753991075	 0.6430949817	 0.9605509389	 0.063627
H	-2.2542248483	-0.0032335003	 0.0515917969	 0.107721
H	-1.4894121163	-0.9661543623	-1.1957757303	 0.131705
H	-1.5766428832	-1.6063626312	 1.807399885	 0.1029
H	-2.4025447174	-2.4332498495	 0.4981492535	 0.113654
H	 0.4983919138	-2.5988984486	 1.3544669553	 0.109171
H	-0.5854878679	-3.879448138	 0.8313548671	 0.119469
H	 1.3937124352	-2.7751667739	-2.7297869234	 0.215567
H	 1.9478684713	-0.0054495233	-0.6765664863	 0.122328
H	 1.5613078541	-0.9590259063	 0.7461112644	 0.113734
