18
gdb 18473	3.52891	1.50838	1.3299	1.9007	67.62	-0.2378	0.0726	0.3104	991.7586	0.153266	-384.887989	-384.879951	-384.879007	-384.920387	30.13	
C	 1.0378002543	 0.6211495027	-1.8728180501	-0.415563
C	 1.4653145015	-0.6734412841	-1.212213257	 0.158017
O	 2.9098205616	-0.896382415	-1.1591163203	-0.306091
C	 2.8006196832	-1.3387902935	 0.1989239154	 0.064843
C	 2.4146818842	-0.2127081121	 1.1067756498	-0.045701
C	 2.930952057	 1.2019166922	 0.9577559311	-0.102959
O	 4.095762542	 1.4045970391	 1.7493137924	-0.420271
C	 1.3449044192	-0.9286082385	 0.2911480267	-0.193692
H	 1.4178967579	 0.6608761676	-2.8989758221	 0.129613
H	-0.0559065393	 0.663784767	-1.9183255557	 0.120589
H	 1.3930885774	 1.5033816873	-1.3380317694	 0.128455
H	 1.0183356192	-1.519712981	-1.7525417662	 0.085346
H	 3.3242113536	-2.2465887578	 0.477237733	 0.10264
H	 2.3640289579	-0.5234728054	 2.1496507696	 0.09855
H	 3.1282826099	 1.4247392146	-0.097024353	 0.105753
H	 2.1940972832	 1.9228197266	 1.3271066926	 0.10873
H	 4.7814047281	 0.826674388	 1.3985465789	 0.283403
H	 0.510859719	-1.4284846277	 0.7656580443	 0.098338
