19
gdb 104634	2.49037	1.33529	1.03729	4.5208	76.35	-0.2343	0.0295	0.2639	1197.5436	0.158768	-419.192421	-419.183087	-419.182143	-419.226287	34.855	
C	 0.3196222027	 1.1099978942	 0.3336419706	-0.340855
N	 0.2032945026	-0.2682783731	-0.1385068883	-0.327723
C	 0.6756684661	-0.4951381309	-1.4970032027	 0.164643
C	 2.2411696402	-0.4449021459	-1.7163090706	-0.265001
C	 2.2794890239	-1.9769201933	-1.5335092719	 0.097999
O	 2.6095590816	-2.2605784452	-0.1807827178	-0.427743
C	 0.7526973745	-2.0248814323	-1.8113381574	-0.291364
C	-0.1041082812	 0.3020784611	-2.4470270756	 0.273474
N	-0.688610122	 0.9219968862	-3.2283088017	-0.352743
H	 1.3390606293	 1.5270926839	 0.280178213	 0.103108
H	-0.3396540246	 1.7553991913	-0.2545029131	 0.149223
H	-0.0107167347	 1.1516770839	 1.3746421656	 0.126085
H	 0.7370533483	-0.8860735509	 0.465815629	 0.232505
H	 2.5162092212	-0.1393470613	-2.727575715	 0.122754
H	 2.8112864867	 0.1333301091	-0.9872414241	 0.12523
H	 2.9204892942	-2.5405640243	-2.2208390291	 0.079195
H	 2.4775567865	-3.2031670783	-0.0318257737	 0.28891
H	 0.1416528128	-2.6563858811	-1.1616626265	 0.115559
H	 0.5244679217	-2.2401960831	-2.8569490306	 0.126744
