18
gdb 117141	4.10686	0.85788	0.71923	4.1023	71.99	-0.2655	-0.0136	0.2519	1546.3062	0.145675	-476.294779	-476.284634	-476.28369	-476.33123	34.334	
C	 0.0331038534	 1.5055035668	 0.1544820598	-0.394155
C	 0.0039794421	-0.0046991809	 0.031413081	-0.042218
O	 0.69808895	-0.5472248418	 1.1768980703	-0.2634
C	 0.7594715546	-1.8872976231	 1.2254541483	 0.542245
O	 0.287201099	-2.6321353907	 0.4006546821	-0.398787
N	 1.4482696534	-2.2977615838	 2.367524278	-0.194772
C	 1.9980316204	-1.3440687553	 3.3305499069	-0.346345
C	 1.6117569376	-3.6640285344	 2.587862805	 0.171084
O	 2.190216457	-4.1225158131	 3.5426223135	-0.317315
H	 1.0610919671	 1.8781695373	 0.1676609443	 0.132552
H	-0.484485349	 1.9531920739	-0.6988433096	 0.129272
H	-0.4656092448	 1.8339889781	 1.0705495608	 0.132548
H	-1.0164907523	-0.3985833524	 0.021348603	 0.129932
H	 0.5019141923	-0.3543789668	-0.8777093617	 0.129705
H	 1.2049001521	-0.7281395074	 3.7595359237	 0.141889
H	 2.4778448318	-1.9314615074	 4.1123899196	 0.169376
H	 2.7301536443	-0.6906403519	 2.8515389296	 0.1419
H	 1.151044571	-4.2603628471	 1.7890870055	 0.136488
