18
gdb 97188	2.69462	1.34868	0.92725	1.9439	78.94	-0.2412	-0.0095	0.2318	1246.396	0.14895	-435.278839	-435.270248	-435.269304	-435.312435	31.733	
C	 0.1181886086	 1.4035015771	 0.2162373712	-0.346458
N	 0.0595822386	-0.0484246926	 0.2015715373	-0.289152
C	-1.0323053282	-0.6177957712	-0.1122610167	 0.380681
C	-1.1321902411	-2.1296281583	-0.0746433331	-0.166581
O	-2.0607216572	-2.6254295762	-1.0164814699	-0.235581
C	-3.3542779154	-2.1178021929	-0.7703209316	-0.139562
C	-3.4029598694	-0.6031467604	-0.8423277798	 0.37057
N	-4.4799328572	-0.0229063969	-1.1912870625	-0.51684
N	-2.212452998	 0.0234654088	-0.4833043619	-0.395268
H	 1.0992455109	 1.72030565	 0.5771282464	 0.133735
H	-0.0146753605	 1.8358040347	-0.7879668603	 0.1177
H	-0.6381817847	 1.8554681423	 0.8779184751	 0.111273
H	-0.1535116505	-2.5468650468	-0.3109247336	 0.146914
H	-1.4087370204	-2.4472776215	 0.9457678451	 0.111834
H	-4.026809703	-2.5219884665	-1.5267470004	 0.149605
H	-3.7167102635	-2.4365054387	 0.222343745	 0.114929
H	-4.3976635117	 0.9959514202	-1.1570862747	 0.205699
H	-2.1923556274	 1.0306868889	-0.5550629855	 0.246502
