21
gdb 83587	2.50705	1.61148	1.54258	0.825	76.21	-0.254	0.0641	0.3181	1003.4752	0.185983	-424.242607	-424.234893	-424.233949	-424.274315	31.353	
O	 0.0731139685	 1.4112680094	-0.0500159919	-0.461509
C	 0.0248921494	-0.0056630797	 0.0055558224	 0.150924
C	 0.5650232024	-0.6068732069	 1.3166725932	-0.048526
C	-0.5643783502	-0.2874642007	 2.3292611709	-0.22514
C	-1.8717398149	-0.2765089704	 1.4737732656	-0.225139
C	-1.3997569333	-0.590429846	 0.0310044614	-0.048523
C	-1.2862352774	-2.1107370594	-0.1787517889	-0.090187
O	-0.5674472309	-2.7330035464	 0.8758987649	-0.246354
C	 0.6939661845	-2.1273092825	 1.1170024844	-0.090187
H	-0.4147621022	 1.7653085091	 0.7001687173	 0.280662
H	 0.5941984136	-0.3374194085	-0.8687108935	 0.076295
H	 1.5352709674	-0.1877292363	 1.5985934605	 0.068964
H	-0.6087018664	-1.0311774595	 3.1284657269	 0.108791
H	-0.3926493196	 0.6816345744	 2.8088285771	 0.091777
H	-2.5950546218	-1.0145114395	 1.8286960138	 0.10879
H	-2.3685263913	 0.6982019515	 1.5158586857	 0.091777
H	-2.0415709165	-0.1577982691	-0.7419421363	 0.068964
H	-2.2745211347	-2.5811376286	-0.1837069677	 0.107387
H	-0.8059212943	-2.3202104448	-1.1497702077	 0.086922
H	 1.3889803099	-2.3385772382	 0.286473629	 0.086923
H	 1.0886196678	-2.609284188	 2.0169794329	 0.107387
