16
gdb 50471	4.44213	1.02451	0.85653	1.3431	66.07	-0.2484	-0.0463	0.2022	1263.0984	0.12427	-475.05811	-475.049817	-475.048873	-475.091717	29.743	
O	-0.8936197106	 1.142500609	 0.2166828717	-0.239933
C	 0.2247227726	 0.753188375	 0.0083246238	 0.140079
C	 1.4453009055	 1.6605546681	 0.0112771111	 0.021097
C	 1.3140425883	 2.8163663335	 0.9978737816	-0.156308
N	 2.5860132187	 3.5192212914	 1.0611820605	-0.330299
C	 3.8039362943	 2.9791102337	 0.7683997292	 0.380868
O	 4.8523390038	 3.5758202342	 0.9153807321	-0.367057
C	 3.7825941964	 1.5707882182	 0.1708008587	-0.192963
O	 2.5638997325	 0.8617310515	 0.3301604091	-0.264154
H	 0.4616137884	-0.3084878846	-0.2162461686	 0.10778
H	 1.5477158082	 2.0678686343	-1.0135127751	 0.105632
H	 0.5234830948	 3.4947846013	 0.6654331122	 0.136726
H	 1.0226504349	 2.4214653902	 1.9803535562	 0.12603
H	 2.62239011	 4.4305312599	 1.4953731505	 0.254306
H	 4.0444179783	 1.6641382823	-0.8955376755	 0.12731
H	 4.565142534	 0.9864395219	 0.6578884825	 0.150887
