23
gdb 63915	2.82461	1.50943	1.48707	0.2598	87.6	-0.2476	0.0875	0.335	1064.6426	0.207564	-351.144986	-351.136947	-351.136002	-351.176728	33.781	
C	-0.1993706086	 1.5930373305	 0.0277185391	-0.430569
C	-0.0106001418	 0.0677084583	-0.018826806	 0.30761
C	-1.3853112012	-0.613224098	 0.1040580042	-0.432458
C	 0.7266886594	-0.419728235	-1.3145624601	-0.25962
C	 2.1098822253	-0.8963855177	-0.8493908756	-0.034833
C	 2.9351624821	 0.2790878387	-0.2364038065	-0.238399
C	 2.3930009284	-0.1119675507	 1.1379828202	-0.08419
C	 1.9019712198	-1.4483086776	 0.5949029629	-0.093726
C	 0.9084218201	-0.4477991345	 1.0993702347	-0.035066
H	 0.7506495201	 2.1253683346	-0.0660432434	 0.117017
H	-0.8570254605	 1.9320892357	-0.7809645576	 0.106133
H	-0.6573463545	 1.8988774463	 0.9754335298	 0.106147
H	-2.0246412599	-0.3601340397	-0.7492198206	 0.107632
H	-1.2825337217	-1.7030962265	 0.1355681821	 0.11034
H	-1.9062151983	-0.2967923226	 1.0150612848	 0.105579
H	 0.174245047	-1.2497808067	-1.7697006693	 0.087862
H	 0.8004263149	 0.3710692625	-2.0692223887	 0.090487
H	 2.6369481467	-1.520520305	-1.5713327989	 0.061578
H	 4.0091469747	 0.080332239	-0.2960191093	 0.096427
H	 2.7449126243	 1.2876990722	-0.6203072702	 0.085477
H	 2.8776045359	 0.0893581054	 2.0869788995	 0.076336
H	 2.049813718	-2.4564578263	 0.9584426701	 0.078787
H	 0.4667667197	-0.6122441926	 2.0782581489	 0.07145
