13
gdb 15278	4.96432	1.1539	1.01389	4.792	65.03	-0.2823	-0.0021	0.2802	1091.4261	0.093544	-361.414855	-361.407036	-361.406091	-361.447761	27.539	
C	-0.087655697	-1.202845311	 0.2386458461	-0.421393
C	-0.0178617824	-0.0057303904	 0.1557213632	 0.332518
C	 0.0371570726	 1.4258216124	 0.0324015773	-0.15375
O	 0.6923288491	 2.1628861983	 1.0820808705	-0.227076
C	 1.3057981248	 2.1521136617	-0.1953524421	 0.075582
C	 2.6257134299	 1.4109775606	-0.3196511374	-0.378347
C	 3.756419695	 2.2224207949	 0.129047814	 0.265644
N	 4.6458472563	 2.87418263	 0.4729672798	-0.296201
H	-0.1525397379	-2.2602306097	 0.3217537805	 0.214012
H	-0.8775081936	 1.8943058433	-0.3286992158	 0.130406
H	 1.2553136704	 3.0989272538	-0.733637942	 0.121977
H	 2.5820337118	 0.4870643333	 0.2638644036	 0.174381
H	 2.7888936411	 1.1308102028	-1.3672710976	 0.162246
