12
gdb 42151	3.75735	0.72622	0.63426	4.925	75.68	-0.3024	-0.1158	0.1866	1634.8308	0.075464	-435.434981	-435.426422	-435.425478	-435.470237	28.391	
O	 0.0560058886	-0.0554629199	-0.256751555	-0.247074
C	-0.0402315135	 1.1371794219	-0.0779655092	 0.191901
C	 1.1595749315	 1.9771907405	 0.0952537147	 0.229862
N	 2.1062335654	 2.6263050731	 0.2339589306	-0.313059
C	-1.2752945341	 1.8604858545	-0.0095773118	 0.112575
C	-2.3176047105	 2.4683780325	 0.0528593689	 0.077633
C	-3.5713350346	 3.1610286098	 0.1123961838	-0.128695
C	-3.8713197113	 4.0842349304	 1.2326945096	-0.153182
O	-3.5399322594	 4.5842803695	-0.0506212927	-0.195289
H	-4.4046476113	 2.6653888659	-0.3823812722	 0.142813
H	-4.9100816585	 4.1995424867	 1.5371937851	 0.139367
H	-3.1228953322	 4.2361924252	 2.007208648	 0.14315
