16
gdb 53632	4.69776	0.56978	0.51294	3.798	79.97	-0.2586	-0.0886	0.1701	2042.0267	0.120837	-400.74952	-400.73913	-400.738186	-400.787638	33.975	
C	-0.0694366612	 1.4878364848	 0.010993621	-0.498142
C	-0.0153805572	 0.0328061627	 0.0024413877	 0.136352
C	 0.0456925487	-1.169435151	-0.0048355625	 0.0007
C	 0.0854794531	-2.6266740789	-0.0131063279	-0.37293
C	-1.3251168311	-3.2383100374	-0.0028047393	-0.296719
C	-1.3080151429	-4.7472131131	-0.0112330226	 0.289035
O	-0.3179016218	-5.4336287471	-0.0244948692	-0.264162
C	-2.6489224051	-5.3777484805	-0.0017865581	 0.231521
N	-3.7024015567	-5.854254605	 0.0057439584	-0.290924
H	 0.9367982226	 1.9208602099	 0.0039434464	 0.15228
H	-0.6014573166	 1.8721891229	-0.8661148018	 0.149881
H	-0.584855911	 1.8624289843	 0.9021251612	 0.149879
H	 0.6272727113	-2.9916682802	-0.8932861898	 0.147953
H	 0.6441328262	-3.0011255556	 0.8524354648	 0.147957
H	-1.8953337083	-2.9087485038	 0.8757304113	 0.15866
H	-1.9122007099	-2.899197902	-0.8664659095	 0.158658
