21
gdb 57404	2.99746	1.18977	1.17528	3.0405	78.55	-0.2297	0.0568	0.2866	1191.1513	0.180243	-424.151909	-424.142687	-424.141743	-424.186624	35.712	
C	 0.9782252642	-0.7616181725	-1.2403484871	-0.408071
C	 0.0414844825	-0.122081568	-0.2013651574	 0.26621
C	 0.0557055746	 1.4109097063	-0.3262148999	-0.408462
O	-1.2910046821	-0.5995990094	-0.4133148474	-0.455757
C	 0.519542987	-0.5100743957	 1.2030111544	 0.079072
C	-0.2610630286	-0.3493737331	 2.5433136058	 0.006131
C	-1.1087581527	-1.610032649	 2.2514376904	-0.22528
C	 0.3701133656	-1.8968535382	 1.9005228424	 0.006787
O	 0.7592580071	-1.2287455565	 3.1684887749	-0.314449
H	 2.0153221956	-0.442416962	-1.0988336768	 0.119033
H	 0.9365123637	-1.8520100497	-1.1703869927	 0.12558
H	 0.6769830831	-0.4723224736	-2.2542202078	 0.101641
H	-0.2454173734	 1.7145588237	-1.336004022	 0.101744
H	-0.6431376127	 1.857177044	 0.386592074	 0.125592
H	 1.0530773975	 1.8209477615	-0.1400703315	 0.119173
H	-1.5548761359	-0.3339441299	-1.3003333344	 0.2762
H	 1.5423702684	-0.142104617	 1.3241196521	 0.08075
H	-0.5287191324	 0.5608818522	 3.0817188196	 0.087075
H	-1.4563622616	-2.1246089199	 3.1485350877	 0.096603
H	-1.8366542279	-1.57312544	 1.4464218963	 0.133213
H	 0.859981978	-2.8433053432	 1.6674446194	 0.087215
