18
gdb 112110	2.96153	1.36213	0.96843	4.3832	75.72	-0.2458	0.001	0.2468	1188.9824	0.148837	-439.098867	-439.090478	-439.089534	-439.134044	30.929	
O	-0.3165262164	 1.5451514479	-0.4818127078	-0.42543
C	-0.0556931962	 0.1946019474	-0.219645864	-0.052082
C	-1.3322719101	-0.612384699	 0.1380194454	-0.179342
C	-1.0813290527	-2.0914413831	 0.1155371121	-0.053633
C	-1.5864856849	-2.9158369398	 1.0232072521	-0.107921
C	-2.4505534829	-2.4310304294	 2.1384778509	-0.11505
O	-2.4458963946	-1.0127308874	 2.3372113278	-0.258761
C	-1.9135186094	-0.1332579166	 1.4578664515	 0.413242
N	-1.9031364352	 1.1080894229	 1.7372254263	-0.52812
H	-0.8166590563	 1.8586624722	 0.2936130059	 0.29655
H	 0.3748217707	-0.2379119071	-1.1308107995	 0.097478
H	 0.6817781541	 0.0570513446	 0.5894933011	 0.086509
H	-2.0671924166	-0.359282058	-0.6416995663	 0.128394
H	-0.4655930795	-2.4695403592	-0.6961828522	 0.104905
H	-1.4130513043	-3.987078145	 0.9859439333	 0.107531
H	-3.4950053199	-2.7378355625	 1.9816376977	 0.13042
H	-2.1345776359	-2.8670636145	 3.0941168741	 0.131473
H	-2.31520305	 1.2821145266	 2.6540365914	 0.223836
