21
gdb 58615	2.22832	1.38249	1.07185	2.1676	78.81	-0.2422	-0.0115	0.2307	1224.7006	0.179645	-424.236122	-424.225922	-424.224978	-424.27104	38.036	
C	 0.8974478005	 0.1313211544	-1.1289169858	-0.411614
C	-0.0466088937	 0.0351222802	 0.0725490036	 0.025128
O	-1.2681238329	-0.5921393276	-0.3070077015	-0.429896
C	 0.6142084549	-0.6606201575	 1.2709574482	 0.237889
C	-0.2624387891	-1.5136158404	 2.1898698845	-0.291146
C	 0.7215099886	-2.1685664626	 1.2731863689	-0.302756
C	 1.6944351447	 0.0682678482	 2.0306314349	 0.320189
C	 1.6770311567	 1.5889840087	 2.0239467984	-0.496117
O	 2.5151671231	-0.5344136119	 2.6908593722	-0.315466
H	 1.189622792	-0.8715873034	-1.4631967469	 0.117095
H	 0.4037332214	 0.6454753417	-1.958082439	 0.126573
H	 1.8177664655	 0.6702375894	-0.8855639141	 0.124872
H	-0.348610327	 1.043936045	 0.3757660039	 0.089456
H	-1.0536962753	-1.3554763736	-0.8535486555	 0.282965
H	-0.0308485929	-1.4903521848	 3.2483522603	 0.127266
H	-1.3121611487	-1.5568004257	 1.9280123514	 0.134138
H	 0.3317073913	-2.6996843768	 0.4110598532	 0.093356
H	 1.6261061711	-2.5788488976	 1.7044777618	 0.141258
H	 0.7025690632	 1.9612285085	 2.3596393757	 0.144407
H	 2.4587502376	 1.9523441489	 2.6915671553	 0.141387
H	 1.8432086289	 1.9909963769	 1.0195508306	 0.141016
