18
gdb 70643	2.4318	1.63553	1.1966	3.2189	77.82	-0.2393	0.039	0.2782	1081.0186	0.146924	-401.889316	-401.880864	-401.87992	-401.922137	32.446	
C	-0.2953388402	 1.2815555258	-0.1432657244	-0.498609
C	 0.0578903114	-0.1618867891	 0.0842943917	 0.302218
N	-0.5831129748	-0.957720873	 1.1473952352	-0.355894
C	 0.8714617557	-0.6945873843	 1.2003501578	-0.119996
C	 1.6732612198	-1.8557879321	 0.6558769416	-0.077913
O	 1.0664708211	-2.1923189936	-0.5894338124	-0.268875
C	 0.4049573054	-1.0437251525	-1.1217984813	-0.077983
C	-0.7428039179	-1.4502970664	-1.9242403665	 0.324636
C	-1.6929026015	-1.726204645	-2.6052752216	-0.434199
H	 0.477038978	 1.7920041377	-0.7288750579	 0.127543
H	-1.2401232885	 1.3659151636	-0.6911852791	 0.141924
H	-0.4043066706	 1.813326879	 0.8072097703	 0.118079
H	-1.0618483182	-0.3243060356	 1.7847958772	 0.228331
H	 1.2868530567	-0.0545904329	 1.9719829679	 0.093896
H	 2.7248639209	-1.5545480364	 0.5219598228	 0.091063
H	 1.6390327712	-2.7502526877	 1.2854948833	 0.118523
H	 1.0989705227	-0.4707043058	-1.762412312	 0.091223
H	-2.5344074712	-1.9896621015	-3.1970252326	 0.196033
