21
gdb 106972	3.86775	1.04762	0.9362	1.7043	84.51	-0.221	0.0262	0.2472	1326.6875	0.182694	-387.093549	-387.084584	-387.08364	-387.126969	34.637	
C	 0.1061902281	 1.4876955993	 0.1298209614	-0.496279
C	 0.0110538518	-0.0006247023	 0.0076563377	 0.341686
C	-0.0163274112	-0.729073959	-1.1143152097	-0.18921
C	-0.1423673088	-2.2124407616	-0.8485547758	-0.323991
C	-0.1029398081	-2.3129121394	 0.6814297157	 0.325726
C	-0.9237368095	-3.3803690951	 1.3563736568	-0.154542
O	-0.4907107696	-4.6943500669	 1.025288561	-0.416923
C	 1.158394499	-1.8255724505	 1.3611241191	-0.333846
C	-0.0272907899	-0.8910411029	 1.2125339287	-0.188701
H	 1.0053918492	 1.7852375884	 0.6840182554	 0.12648
H	 0.1325097776	 1.9706836951	-0.8506509594	 0.123094
H	-0.7490513839	 1.8943026516	 0.6847630329	 0.124363
H	 0.0605912365	-0.3211180405	-2.1167317736	 0.084016
H	-1.0863379949	-2.6171010891	-1.2402685535	 0.107394
H	 0.655449567	-2.7947720529	-1.3260703592	 0.107475
H	-0.919808051	-3.2206553056	 2.4472330371	 0.079407
H	-1.966679659	-3.328789842	 1.0230932039	 0.107886
H	 0.4459839604	-4.7467864786	 1.2436870847	 0.280268
H	 1.3638455153	-2.2145554406	 2.3549485484	 0.103558
H	 2.0397648821	-1.6223438087	 0.7608995113	 0.111116
H	-0.5585520009	-0.5772802289	 2.1062926969	 0.081025
