17
gdb 74115	2.40585	1.77027	1.12918	2.7265	75.72	-0.2401	-0.0495	0.1906	1070.972	0.136535	-421.846726	-421.838934	-421.83799	-421.879233	29.175	
C	 0.2102434693	 1.3976076477	 0.0944261661	-0.498568
C	-0.0144466256	-0.0707472333	-0.0290695496	 0.328387
C	-0.0268633005	-0.825003829	-1.1414503006	-0.291786
C	-0.1878756372	-2.2646135201	-0.8309957805	 0.389954
O	-0.2372831813	-3.1840431755	-1.6157492788	-0.338387
C	-0.2519617518	-2.3740863599	 0.6929150638	-0.209798
C	 1.109567464	-2.5201938045	 1.4254568412	-0.08301
O	 1.0608398738	-1.1555001483	 1.8983806086	-0.292746
C	-0.1975816939	-0.928789086	 1.2054882855	 0.024195
H	 1.0723706495	 1.584061227	 0.7461674521	 0.158315
H	 0.3906734881	 1.8718657531	-0.8726715166	 0.134882
H	-0.6511333462	 1.8843747102	 0.5686429627	 0.139005
H	 0.0997451117	-0.4696570484	-2.1574160789	 0.114324
H	-1.0450926526	-3.0371994869	 1.0340431417	 0.105307
H	 1.1049104195	-3.2318965676	 2.2574331941	 0.116824
H	 1.979169271	-2.7122173747	 0.7867186956	 0.117526
H	-0.9696078476	-0.5577097238	 1.8888809936	 0.085575
