20
gdb 103709	2.88958	1.15953	0.96979	2.9373	81.01	-0.2402	0.0244	0.2646	1284.6206	0.170006	-399.322446	-399.312016	-399.311072	-399.357838	38.148	
C	 0.1381309506	 1.4920131556	-0.3152996299	-0.391166
C	 0.004307821	 0.0655125346	 0.2305738914	-0.202573
C	-1.4201795093	-0.4562159733	 0.1307366431	 0.29926
N	-2.3535455824	 0.2963793056	 0.9395578132	-0.58162
C	-1.867056483	-1.0916177557	-1.1666115787	-0.347136
C	-1.6275655337	-1.9751737039	 0.0554557068	 0.094844
N	-0.4689415801	-2.8310991835	 0.0228474242	-0.55538
C	-2.8027031123	-2.5071551739	 0.7155028488	 0.24543
N	-3.7218298279	-2.9507312356	 1.2638060152	-0.36192
H	 1.1714260003	 1.8415446748	-0.2328854711	 0.116393
H	-0.1483095143	 1.5430347076	-1.3717913541	 0.111856
H	-0.4929687162	 2.1897925264	 0.2436269333	 0.124019
H	 0.6759265464	-0.6101051395	-0.3037224261	 0.115617
H	 0.2966758215	 0.0522435712	 1.2869298336	 0.102857
H	-2.734471723	 1.0765161786	 0.4147720532	 0.234837
H	-3.1363002448	-0.2703863981	 1.2485426752	 0.24808
H	-2.893896894	-0.9498447581	-1.4839198141	 0.12588
H	-1.1426517005	-1.2170497894	-1.9641345921	 0.129183
H	-0.1865627849	-3.093233963	 0.9625504694	 0.246701
H	-0.6756059133	-3.6878437503	-0.4817629311	 0.244837
