18
gdb 111375	2.0217	1.79244	1.1381	2.3411	78.55	-0.2292	0.0462	0.2754	1116.5367	0.146156	-401.846461	-401.837676	-401.836732	-401.879938	32.851	
C	 0.0657451075	 1.3275859186	-0.0848818286	-0.245109
O	-0.2989292586	-0.0016667542	 0.2334135177	-0.23278
C	 0.5447770237	-0.604662244	 1.1530589904	 0.174085
C	 0.1312734062	-1.9970074051	 1.6038431794	-0.111254
N	 0.2430186028	-2.8963416776	 0.4314044665	-0.309641
C	 1.4491847163	-2.5719964564	 1.2124948367	-0.048697
C	 1.9589227098	-1.2179739985	 0.6837426179	-0.29047
C	 2.3394763877	-1.1313980032	-0.709449149	 0.377593
C	 2.6769889597	-1.0447040813	-1.860513449	-0.458275
H	 1.0548953156	 1.3749439843	-0.5575612687	 0.124264
H	-0.6813736973	 1.7042152809	-0.7868249561	 0.129352
H	 0.0682790114	 1.9680469992	 0.8115232045	 0.099281
H	 0.7253228439	 0.0520913606	 2.0180429976	 0.068702
H	-0.5189671536	-2.2420230632	 2.4340946758	 0.097986
H	-0.0768921254	-3.8154778888	 0.735419058	 0.232014
H	 2.0416445353	-3.3382406956	 1.6955138198	 0.100554
H	 2.7532158745	-0.8178247602	 1.3212023813	 0.100295
H	 2.9582456606	-0.9833015156	-2.8823683442	 0.192099
