17
gdb 11988	2.74169	2.14279	1.81346	3.1583	63.43	-0.2378	0.0689	0.3067	823.1843	0.141353	-400.94864	-400.940818	-400.939874	-400.980133	30.568	
C	-0.1531290676	 1.5710483721	 0.0514071993	-0.451025
C	-0.015046178	 0.0614751219	 0.0509204262	 0.366661
O	-1.2246306684	-0.5947602523	 0.3966888667	-0.478418
C	 0.6650182041	-0.6122111584	-1.1599132376	-0.117203
N	 2.0701918387	-0.1300432962	-1.1697490375	-0.36603
C	 1.6780916394	-1.2669406479	-0.2947097342	-0.088549
C	 1.1175803003	-0.5827539991	 0.9584922813	 0.11747
O	 1.9883366846	 0.2571056639	 1.6579416097	-0.435182
H	 0.7793781088	 2.0477387581	-0.2580680631	 0.13084
H	-0.9391264039	 1.8864255658	-0.6469735427	 0.097468
H	-0.4159556384	 1.9263601131	 1.0515685188	 0.133181
H	-1.917187361	-0.2691710178	-0.1888620781	 0.274965
H	 0.1906808127	-0.9787930518	-2.0629688462	 0.090498
H	 2.5286784071	-0.5144949178	-1.9938812357	 0.23556
H	 2.1670587989	-2.2290858503	-0.383376148	 0.094841
H	 0.6521612695	-1.268190081	 1.6687557172	 0.103554
H	 2.5180649732	 0.7014313278	 0.9819100739	 0.291367
