22
gdb 68110	4.36526	1.05162	1.03406	1.1236	87.82	-0.2266	0.0889	0.3154	1284.2626	0.194443	-367.140822	-367.132332	-367.131387	-367.173829	33.8	
C	 0.0271216888	 1.4797749672	-0.0783481653	-0.506045
C	-0.0104162559	-0.0224927266	-0.0036986655	 0.342327
C	 0.7098826428	-1.0354114108	-0.9477966484	-0.299926
C	-0.0602292071	-1.9014868949	 0.0829375194	 0.395839
C	 0.4575134983	-0.909228087	 1.191082935	-0.310295
C	-1.2658082899	-0.9442359345	-0.1063506601	-0.299938
N	-0.1359322938	-3.3263645035	 0.0595676901	-0.174597
C	 0.9268184804	-4.068318599	 0.7332914381	-0.235092
C	-0.4412054614	-4.0052436926	 1.3164545825	-0.235093
H	 1.0514394821	 1.8544911005	 0.02501545	 0.117035
H	-0.3647401616	 1.8361794121	-1.0372880714	 0.118669
H	-0.5760644364	 1.9295940376	 0.7179888888	 0.117036
H	 0.3547032364	-1.0825337249	-1.981117621	 0.089411
H	 1.8027473667	-1.0620574694	-0.8951516504	 0.082265
H	 1.5315379206	-0.9105404266	 1.4007703436	 0.084554
H	-0.1326326538	-0.8337563641	 2.109522172	 0.084556
H	-1.9839345718	-0.8873040026	 0.7175957308	 0.082267
H	-1.7681517686	-0.984570344	-1.0769939497	 0.089409
H	 1.2689834415	-4.9634461099	 0.2220693087	 0.115632
H	 1.7063833484	-3.5009863673	 1.2373104412	 0.113175
H	-0.5714816583	-3.3959580704	 2.2083185118	 0.11318
H	-1.1149868072	-4.8535308394	 1.2383140597	 0.115633
