17
gdb 41207	2.96079	1.849	1.67849	1.7936	68.37	-0.2414	0.0367	0.2781	870.7553	0.136972	-458.829576	-458.823045	-458.8221	-458.860055	27.301	
C	 0.0782066741	 1.5648164436	-0.1863817913	-0.179016
O	 1.5493016109	 1.427028863	 0.0002211796	-0.32992
C	 1.2234799521	 0.2754392581	 0.8614957667	 0.085212
C	 1.2864102898	-1.3064365311	 1.0626711056	 0.034549
C	-0.3309105681	-1.1168173392	 1.139489483	-0.332973
C	-0.0478951481	 0.0507303788	 0.1392011814	 0.347734
O	 0.1508993257	-0.6208125961	-1.1314805498	-0.2986
C	 1.3742047223	-1.300598834	-1.2310940931	 0.01871
O	 1.6455356656	-2.0538574717	-0.0584073866	-0.252789
H	-0.3419952726	 2.2494046976	 0.5586122557	 0.109847
H	-0.1693109281	 1.8636176314	-1.2059265579	 0.129227
H	 1.0492884149	 0.6718932447	 1.8691743033	 0.094599
H	 1.8078728758	-1.7132073733	 1.9307880972	 0.09922
H	-0.9008786153	-1.9574686397	 0.7437321413	 0.125118
H	-0.6776597723	-0.8253507537	 2.1314068005	 0.115729
H	 1.3020948965	-2.0020793495	-2.065064073	 0.119515
H	 2.193238447	-0.585177519	-1.3884088227	 0.113839
