21
gdb 91035	2.17018	1.732	1.49501	1.1573	81.03	-0.2194	0.0756	0.295	1040.6664	0.182533	-387.036012	-387.027743	-387.026799	-387.068071	33.851	
C	-0.4280573402	 1.5275017174	-0.0167714307	-0.421169
C	 0.009563101	 0.0690129256	-0.025133213	-0.027531
C	 1.0700139608	-0.4624142937	-1.0553628228	-0.285664
C	 1.8255708993	-1.1999845806	 0.0940816583	-0.093708
C	 3.0274609487	-0.5053170277	 0.780994047	-0.058783
C	 2.9068741621	 0.9894741553	 0.7704098627	-0.298968
C	 2.0717073607	 0.212036658	 1.7481584941	-0.080011
C	 0.8671598897	-0.5338831539	 1.1319354488	 0.410001
O	 0.2126507466	-1.2310940734	 2.1537515812	-0.489106
H	 0.4195419768	 2.2126347443	 0.065848102	 0.12213
H	-0.9755006619	 1.7812452012	-0.9313923456	 0.112234
H	-1.0923132468	 1.7238719971	 0.8321489042	 0.120109
H	-0.889051538	-0.5594501586	-0.1045942678	 0.057301
H	 0.6558950326	-1.1236887965	-1.8199334773	 0.094486
H	 1.6469140047	 0.3136833144	-1.5638053322	 0.103226
H	 1.8955547158	-2.2857601897	 0.0285421621	 0.066314
H	 3.9701211039	-0.9932014761	 0.9984858408	 0.083824
H	 3.7420553205	 1.5125359182	 1.2272081025	 0.112103
H	 2.4792432967	 1.523048287	-0.0699387204	 0.108414
H	 2.1568710793	 0.3575899885	 2.8182163633	 0.090414
H	-0.4328515823	-1.8203577567	 1.7489123929	 0.274383
