16
gdb 81159	2.54305	1.70921	1.26018	3.9045	69.27	-0.256	0.0037	0.2597	995.9673	0.125204	-437.864799	-437.857345	-437.856401	-437.896544	29.183	
O	-0.0539439794	 1.4020987876	 0.1511365329	-0.432062
C	 0.0180955758	 0.0120452817	 0.043420828	 0.096262
C	-1.3808973625	-0.6283521571	-0.2025009491	-0.121217
C	-1.2332518263	-0.1829882736	-1.6926931536	-0.281249
C	 0.2405752466	-0.573529701	-1.4022122794	 0.326045
O	 0.1975389084	-1.9842460275	-1.1681893385	-0.320101
C	-0.974802039	-2.0992898439	-0.3110450243	-0.089121
C	 1.3612690591	-0.1742725669	-2.2228516433	 0.177192
N	 2.2525360742	 0.2256387716	-2.8406430373	-0.337053
H	 0.8366286778	 1.7619158472	 0.0718338705	 0.301553
H	 0.6541203605	-0.4468829723	 0.811037165	 0.089818
H	-2.242569222	-0.3689812624	 0.4087434234	 0.097864
H	-1.7417586175	-0.7621373795	-2.4649103657	 0.116149
H	-1.3678222489	 0.8876625903	-1.8238553755	 0.141947
H	-0.6857580034	-2.5519324474	 0.6428946335	 0.116661
H	-1.7276017733	-2.7275212067	-0.7981386868	 0.117311
