20
gdb 8243	4.62705	1.03249	1.01367	2.6794	71.66	-0.2389	0.071	0.3099	1261.4716	0.175941	-386.123467	-386.114432	-386.113488	-386.15774	32.589	
C	-0.0227530553	 1.5178299799	-0.1257146973	-0.406669
C	-0.0287409559	-0.004422445	 0.0047844266	 0.140619
O	 0.7876485512	-0.4341224449	 1.094445003	-0.43211
C	-1.448815465	-0.5789789223	 0.1164971859	-0.217897
C	-1.4637988964	-2.0963977778	 0.0778163812	 0.168984
C	-2.8268292502	-2.8174145818	-0.0217582276	-0.304415
C	-2.2529987381	-3.4160099812	-1.3208952931	-0.05637
O	-1.0617331776	-2.6105029771	-1.2206578092	-0.296423
H	 1.0042125825	 1.8891757145	-0.1800962446	 0.124384
H	-0.558452091	 1.8415062398	-1.0238627044	 0.117702
H	-0.5109873178	 1.9857225704	 0.7393230758	 0.102146
H	 0.4446191144	-0.4457099864	-0.8795236034	 0.112487
H	 0.4580528739	-0.0034400704	 1.8914328837	 0.273214
H	-1.9065722837	-0.2380211797	 1.0578024284	 0.080662
H	-2.0691490136	-0.1940152733	-0.7024491981	 0.094501
H	-0.8054327726	-2.4890995233	 0.8627073247	 0.084958
H	-3.0612437279	-3.5232045139	 0.7764456324	 0.108056
H	-3.6754722515	-2.1452525427	-0.1684888204	 0.105368
H	-2.024922911	-4.4889346956	-1.2740778303	 0.099554
H	-2.8095143244	-3.2152917992	-2.244088553	 0.101249
