19
gdb 57779	3.55995	0.70412	0.65133	1.524	83.11	-0.2385	0.0319	0.2703	1776.0555	0.15604	-422.976665	-422.966307	-422.965363	-423.013865	37.412	
C	-0.0232860906	 1.5871987191	 0.2320034097	-0.383891
C	-0.0129812525	 0.0691294834	-0.0039781181	-0.017881
O	 0.8036248806	-0.6028782229	 0.9537383056	-0.414513
C	-1.3740294238	-0.4738492834	-0.0401801231	 0.0491
C	-2.4931988533	-0.924301031	-0.0133835024	 0.022095
C	-3.8448205851	-1.4195917705	 0.0022798582	 0.227823
O	-4.7881608594	-0.5938548972	 0.637372705	-0.442826
C	-4.3348598849	-2.2668436089	-1.1630929045	-0.311941
C	-4.1058958258	-2.892337877	 0.1889641166	-0.288305
H	 1.0054765701	 1.955032155	 0.2646488686	 0.125953
H	-0.5635124356	 2.1034781786	-0.5669911206	 0.122026
H	-0.5123126541	 1.8230190302	 1.1825978155	 0.118702
H	 0.4765134569	-0.1316691038	-0.9650077707	 0.116752
H	 0.3207895915	-0.6071887302	 1.787846147	 0.28272
H	-4.8095907728	 0.242536589	 0.1586423678	 0.284206
H	-5.3611910127	-2.0929465866	-1.4657394179	 0.122345
H	-3.6393629347	-2.4864419741	-1.9644267986	 0.125432
H	-3.2522514402	-3.5446981876	 0.3248435315	 0.130285
H	-4.9780603835	-3.1321737421	 0.7859485901	 0.131919
