18
gdb 107383	3.23524	1.18491	0.98574	2.2181	71.48	-0.2343	-0.0272	0.2071	1202.9699	0.14723	-439.079227	-439.070854	-439.06991	-439.112582	31.714	
O	 0.2016957043	 1.3588200522	 0.2409566048	-0.411558
C	 0.0685519575	-0.038486635	 0.0286457702	-0.152748
C	-1.3778773059	-0.462020149	-0.0761198292	 0.293138
C	-2.117740406	-0.964923362	 1.1153398577	-0.296489
N	-1.6569050173	-1.9172838266	 0.0947742921	-0.134643
C	-2.7046919163	-2.2936418187	-0.855887455	-0.276365
C	-3.1970876298	-1.0172346176	-1.5608731225	 0.376858
O	-4.1551510033	-0.9324657957	-2.2805393412	-0.297284
C	-2.2282480629	 0.1143755254	-1.1907049661	-0.396619
H	-0.2163544716	 1.5685116332	 1.082827705	 0.284345
H	 0.5852916218	-0.2435208009	-0.9157861105	 0.113394
H	 0.5656159049	-0.6295760359	 0.8113084027	 0.1005
H	-1.6158279178	-1.0522543307	 2.0756012845	 0.119043
H	-3.1852875928	-0.7566302123	 1.1847898657	 0.116897
H	-2.2877981922	-2.9719150406	-1.6108804743	 0.139895
H	-3.5340825289	-2.81627888	-0.37001176	 0.139357
H	-2.7803693573	 1.0188136725	-0.925095097	 0.141462
H	-1.6199655365	 0.3596934818	-2.070177287	 0.140816
