18
gdb 49708	3.00701	1.48695	1.44388	4.0568	76.63	-0.2384	0.0014	0.2398	991.1566	0.150456	-401.971625	-401.964496	-401.963552	-402.003489	28.291	
O	 0.0363678067	 0.0394095589	-0.3743282068	-0.341584
C	 0.0747690163	 1.232320352	-0.1499570581	 0.13489
N	 1.1754491247	 1.9200022155	 0.243036451	-0.000056
C	 2.5669140109	 1.4592017754	 0.1411766667	-0.075712
C	 2.9582854165	 2.0520945561	-1.2613883843	-0.209874
C	 2.1660154521	 3.3966452293	-1.2791909928	-0.206793
C	 1.4379935326	 3.3588484889	 0.1152235377	-0.094016
C	 2.5336846961	 3.5167977371	 1.1626572397	-0.065974
C	 3.2152999616	 2.3690131924	 1.1762785148	-0.067449
H	-0.8188991167	 1.8886738617	-0.1976560542	 0.066799
H	 2.6743504567	 0.383755117	 0.2502417373	 0.109132
H	 4.0370404656	 2.1853577455	-1.3627853635	 0.106474
H	 2.6171697462	 1.3802454921	-2.0525604535	 0.122508
H	 2.804318379	 4.2762748706	-1.3847704554	 0.107123
H	 1.4282269113	 3.4110695284	-2.085975109	 0.10904
H	 0.551420192	 3.9847835006	 0.2073448935	 0.087001
H	 2.7537357339	 4.4375745708	 1.6853670271	 0.108765
H	 4.1221258044	 2.1332412478	 1.7162258497	 0.109726
