19
gdb 15843	4.63134	0.94517	0.83351	1.5011	68.09	-0.247	0.0698	0.3168	1364.2748	0.164384	-402.157163	-402.147773	-402.146829	-402.191931	33.195	
O	-0.0114062448	 1.2037239114	-0.6885429659	-0.42373
C	 0.0348895628	-0.0616578334	-0.0448779592	-0.078374
C	-1.3667430957	-0.655962049	-0.0921286591	-0.185798
C	-1.4625641652	-2.0230553615	 0.592354983	 0.084569
O	-1.037607535	-1.9667067733	 1.9564196692	-0.431739
C	-2.8521121753	-2.6127096274	 0.4714879555	 0.006537
C	-3.1403425837	-3.653945461	-0.5468731717	-0.241662
N	-3.0942652444	-4.0008035793	 0.8820805929	-0.319637
H	 0.8569112775	 1.6095111843	-0.6122242304	 0.28568
H	 0.7414362446	-0.7408707395	-0.5508978413	 0.082196
H	 0.3592705486	 0.0251993075	 1.0011514591	 0.100253
H	-2.0631414372	 0.0450402539	 0.3877497275	 0.098393
H	-1.6853166622	-0.7476734266	-1.1371335467	 0.111323
H	-0.7497119237	-2.7150211918	 0.1227313574	 0.078491
H	-1.692742731	-1.45762222	 2.4475803307	 0.281319
H	-3.6562840004	-1.9312941232	 0.7526920842	 0.085487
H	-4.1238701028	-3.7147245729	-1.0037650815	 0.120247
H	-2.3235154145	-3.970262724	-1.1915520556	 0.110766
H	-2.2063694478	-4.4419148941	 1.1127094419	 0.235678
