20
gdb 116903	4.46404	0.56562	0.54191	1.3184	86.33	-0.2338	0.0467	0.2806	2079.9703	0.169081	-403.090294	-403.079786	-403.078842	-403.127906	36.975	
C	 0.1086488564	 1.3502613876	 0.4887620623	-0.459411
C	 0.0016859511	-0.0550913805	-0.0792675958	 0.098624
C	 0.6382268562	-0.3412990836	-1.4013692239	-0.261079
N	 1.2358202011	-0.8788635612	-0.1721654545	-0.330186
C	-1.1891112355	-0.7763132368	 0.3053141145	 0.09917
C	-2.2066527284	-1.3338690726	 0.6298296982	 0.061218
C	-3.4089710578	-2.0482185101	 1.0381714158	-0.329989
C	-3.0998241078	-3.2475229818	 1.941637039	-0.062448
O	-4.3415609813	-3.8497826299	 2.2668895939	-0.416175
H	 1.0123456545	 1.8488731777	 0.1224672568	 0.109434
H	-0.7566681703	 1.953780279	 0.1983483099	 0.134168
H	 0.1455772584	 1.3235497331	 1.5825177179	 0.131613
H	 0.1970866053	-1.0858324297	-2.0566416661	 0.125156
H	 1.1260910871	 0.4868055474	-1.9101600175	 0.11114
H	 2.0306779918	-0.305376773	 0.1031615996	 0.228747
H	-4.0896339615	-1.3770215391	 1.5762620145	 0.135213
H	-3.9603692086	-2.4094001391	 0.1612902481	 0.135692
H	-2.4349471446	-3.9432869216	 1.409162991	 0.101993
H	-2.5667023018	-2.900421532	 2.8391269604	 0.098365
H	-4.1688645243	-4.6147248737	 2.822994906	 0.288757
