18
gdb 42951	2.48158	1.99347	1.34341	2.5813	74.85	-0.2182	-0.0221	0.1961	971.3031	0.149787	-401.930415	-401.923358	-401.922414	-401.962016	28.222	
O	-0.0700988124	 0.082211377	-0.7109550243	-0.325268
C	-0.0773123332	 1.1913850478	-0.2397364041	 0.383568
C	-1.2767787483	 2.0719722657	-0.0173531449	-0.15034
C	-1.5723163446	 2.4204373408	 1.4367563956	-0.304524
C	-0.772236706	 3.3661473898	 0.5843440276	-0.021845
N	 0.6776086042	 3.3220631977	 0.6584637118	-0.102783
C	 1.3411565033	 3.1089879243	 1.9793728988	-0.166972
C	 1.8738305968	 1.7255226961	 1.5174366368	-0.257796
C	 1.1557197784	 2.0057487372	 0.1675621765	-0.078141
H	-2.0992261103	 2.0020307252	-0.7179313783	 0.113488
H	-2.6022590384	 2.679778555	 1.6577714666	 0.127173
H	-1.0823114267	 1.8527943712	 2.2200105574	 0.125595
H	-1.2152578985	 4.3175390972	 0.3060438654	 0.099721
H	 2.1124441105	 3.8590742673	 2.178339407	 0.109854
H	 0.6519733251	 3.0896474969	 2.8301465571	 0.105036
H	 2.9585976597	 1.6365959839	 1.4477628988	 0.117127
H	 1.4870399491	 0.8659180029	 2.0690701098	 0.117673
H	 1.8224083811	 2.070091244	-0.7012446875	 0.108434
