23
gdb 99889	2.17594	1.27977	1.0134	0.5503	91.21	-0.2553	0.061	0.3163	1331.0143	0.203073	-351.11274	-351.102163	-351.101219	-351.148075	40.097	
C	-0.1642092307	 1.4794224888	 0.1169847533	-0.404346
C	-0.0315950336	-0.0257726574	-0.1253063154	-0.177504
C	 0.7956039014	-0.4440277545	-1.3787248647	 0.040041
C	 0.1587477058	 0.1341310702	-2.6619065172	-0.432778
C	 2.1675983675	 0.0694915435	-1.2572688999	 0.374914
C	 3.2922927414	 0.4833051445	-1.1536099144	-0.515228
C	 0.8725836462	-1.9819047313	-1.3843761698	 0.032543
C	-0.1862402079	-2.8674837959	-1.9921407441	-0.289003
C	 1.1968440815	-2.8096162822	-2.5972923805	-0.281786
H	 0.8192586361	 1.9548388933	 0.1787271972	 0.130514
H	-0.7311432913	 1.9762223285	-0.6760791276	 0.114826
H	-0.6889684833	 1.6665810378	 1.0589694173	 0.111501
H	 0.4346203241	-0.4897042625	 0.7515171553	 0.099811
H	-1.0248159569	-0.4797571568	-0.2265868219	 0.097103
H	 0.2021915633	 1.2249200834	-2.6501082103	 0.129849
H	 0.6886708815	-0.2012861846	-3.5563878161	 0.125571
H	-0.8913931552	-0.1624198965	-2.7426492885	 0.115115
H	 4.2867091331	 0.8453045082	-1.0661535331	 0.191485
H	 1.3016397457	-2.3555276953	-0.4583034496	 0.089119
H	-0.4818141066	-3.756843237	-1.4462854476	 0.110249
H	-0.9929320388	-2.4081988385	-2.5519097696	 0.112052
H	 1.3032071563	-2.3137942347	-3.5553971016	 0.114808
H	 1.8585396904	-3.6590120809	-2.4685580912	 0.111142
