15
gdb 22125	3.28764	0.98516	0.90607	2.733	70.35	-0.2611	-0.0178	0.2433	1280.6403	0.110163	-453.895121	-453.886261	-453.885317	-453.929381	32.41	
O	-0.2770727526	 1.2922162405	 0.5788978041	-0.388362
N	-0.073650679	-0.0885962274	 0.4424680944	-0.221781
C	-1.0740509135	-0.6411428986	-0.0988643315	 0.440214
C	-2.4326423318	-0.186888942	-0.5859306572	-0.363768
C	-2.8001622497	-1.6909129884	-0.8080995044	 0.264908
O	-3.177374054	-1.9231401512	-2.1424104789	-0.449865
C	-1.3238598269	-2.0983602772	-0.4154355589	-0.379789
C	-3.808044961	-2.2102909672	 0.1257904985	 0.229934
N	-4.5994045723	-2.651484109	 0.8437279271	-0.331346
H	 0.5335884652	 1.5784530301	 1.0139676567	 0.312253
H	-3.0431188616	 0.3678653386	 0.1287420206	 0.152859
H	-2.414256406	 0.3492015087	-1.5389487169	 0.154172
H	-3.3634250255	-2.86266533	-2.2560538003	 0.296932
H	-0.7833153728	-2.465846341	-1.2928026158	 0.139068
H	-1.2136730485	-2.8062549459	 0.4086260926	 0.14457
