19
gdb 19152	3.69996	1.51794	1.24299	2.4124	71.07	-0.2409	0.0701	0.311	1033.9005	0.165041	-365.012621	-365.004224	-365.00328	-365.045879	30.979	
C	-0.3542067909	 1.7507277031	-0.1423086988	-0.414094
C	-0.4478082971	 0.2242253966	-0.2020149586	-0.249385
C	 0.5459800298	-0.5004127618	-1.1051023872	 0.295299
C	 1.1213295417	 0.1407650977	-2.3175054456	-0.277038
N	 1.9635076097	-0.1120753066	-1.1321442456	-0.34313
C	 0.3043537392	-1.9844404394	-1.1379888821	 0.024944
C	 1.3921093907	-2.9662321526	-1.1186914849	-0.170511
O	 0.6187755651	-2.7061604633	 0.0577052313	-0.246593
H	 0.6361962376	 2.0961781826	 0.175020648	 0.116683
H	-0.5811377266	 2.2152874755	-1.1066646697	 0.122944
H	-1.0726805017	 2.1401482096	 0.5846062004	 0.1247
H	-0.3261626417	-0.1912884564	 0.8060050172	 0.126455
H	-1.4595611065	-0.0591861418	-0.5207275095	 0.104191
H	 1.3663097053	-0.4664987259	-3.1850205178	 0.114719
H	 0.8428402861	 1.1644183759	-2.5491087103	 0.112373
H	 2.0995682043	 0.7516867683	-0.6136353011	 0.22956
H	-0.6482368838	-2.274856733	-1.5871694182	 0.08754
H	 1.2368186236	-3.9460110029	-1.5692771425	 0.105191
H	 2.4156441652	-2.6033008954	-1.087310215	 0.136154
