17
gdb 12476	3.52814	1.91616	1.36222	2.9076	65.68	-0.2562	0.0208	0.277	903.1182	0.144593	-401.006614	-400.99941	-400.998465	-401.038268	27.063	
N	-0.067063317	 1.3117013723	 0.3151798564	-0.489902
C	-0.0098599283	 0.0870576155	-0.0063507956	 0.371874
C	-1.2767474847	-0.7372306046	-0.0816850587	-0.250864
C	-1.4568671406	-1.5200958827	-1.3940147901	-0.249782
C	-0.6714684258	-2.8356381149	-1.3972321636	-0.07263
O	 0.5842148147	-2.7451881962	-0.7231002482	-0.225113
C	 1.3633220982	-1.6491650918	-1.0600679863	 0.013666
O	 1.2022143031	-0.5238199033	-0.1974138189	-0.251496
H	 0.8761751842	 1.7062348412	 0.3384878314	 0.217003
H	-1.2868528046	-1.4359740326	 0.7638375998	 0.128812
H	-2.095520923	-0.0313560274	 0.0608668931	 0.13317
H	-2.5166346224	-1.7545247497	-1.5402815867	 0.113544
H	-1.1690902772	-0.888966342	-2.242282714	 0.115447
H	-1.2195360955	-3.6072573497	-0.8486696118	 0.120655
H	-0.5213596898	-3.1981072925	-2.4246893703	 0.101679
H	 2.4095925832	-1.9299686849	-0.9231438998	 0.127085
H	 1.1955311856	-1.3379844566	-2.1019871868	 0.096853
