14
gdb 98042	6.0434	0.58323	0.53544	5.0546	73.84	-0.2864	-0.0498	0.2366	1936.4978	0.09869	-436.689763	-436.680073	-436.679129	-436.72722	31.483	
C	 0.079010111	 1.3688003466	 0.0070190909	-0.243803
O	-0.0123006629	-0.064606641	 0.0002948533	-0.217936
C	-1.2649750613	-0.5509811277	 0.0118356298	 0.268198
O	-2.265827112	 0.1198233368	 0.0267226902	-0.346691
C	-1.2537622327	-1.9984374534	 0.0039926804	-0.05592
C	-1.3169350148	-3.1992371496	-0.0016955278	 0.261779
C	-1.359506305	-4.6574594469	-0.008916334	-0.489203
C	-2.7220530316	-5.2053593517	-0.0008924481	 0.286718
N	-3.7842676288	-5.6566314315	 0.0052145782	-0.289242
H	 1.1449877842	 1.5934444178	-0.0024998003	 0.140179
H	-0.41157061	 1.7880861786	-0.8746969631	 0.148383
H	-0.3937945686	 1.7786515161	 0.90275391	 0.148426
H	-0.8342958507	-5.0422806326	-0.8926235968	 0.194549
H	-0.8203565669	-5.0512865315	 0.8623457974	 0.194562
