18
gdb 88744	3.77702	0.89762	0.78218	2.6413	75.49	-0.2416	-0.0438	0.1978	1448.9185	0.145009	-439.028431	-439.019304	-439.018359	-439.063437	32.598	
C	 0.4790733089	 1.5359698218	-0.6881499655	-0.317839
N	 0.2311922174	 0.1589105958	-0.2819019715	-0.080259
C	 1.3352408742	-0.6068619029	 0.2677130599	-0.255144
C	 0.1867135965	-0.20361454	 1.1365516559	-0.02513
C	 0.4061932152	 0.799281767	 2.2199034616	 0.061169
O	-0.7410938661	 1.3140649398	 2.8877386621	-0.246361
C	 0.1664602545	 0.5250081887	 3.6629077774	-0.066778
C	-0.3492022462	-0.7928095382	 4.1443318027	 0.142703
O	 0.1276361637	-1.3805102142	 5.0812722215	-0.244799
H	 1.2959187033	 2.0382082349	-0.1471925351	 0.102142
H	 0.737247968	 1.5372289658	-1.7514151095	 0.13137
H	-0.4352076127	 2.1223671248	-0.5571844736	 0.137538
H	 1.4341354941	-1.6353630117	-0.068671994	 0.125736
H	 2.2818410994	-0.0908020842	 0.4337194794	 0.110257
H	-0.5807481881	-0.9403760258	 1.3596100809	 0.101571
H	 1.1711727415	 1.5494578815	 2.0205476546	 0.108739
H	 0.7689534228	 1.0645422507	 4.3930381727	 0.118773
H	-1.2225271362	-1.1818345838	 3.5786752706	 0.096312
