19
gdb 81439	3.27276	1.42289	1.31863	0.873	74.09	-0.247	0.075	0.322	1026.9998	0.160215	-422.969895	-422.962279	-422.961335	-423.001265	31.792	
O	 0.1440236305	 1.4517528378	-0.0871564922	-0.463266
C	 0.0826323012	 0.0458362419	-0.0480878425	 0.182095
C	 0.1830022313	-0.6302829377	 1.3538272203	-0.082188
C	-1.3437622642	-0.2820985332	 1.5062972987	-0.258087
C	-1.3388631055	-0.5993729763	-0.0329731441	-0.140506
C	-1.0545547439	-2.1141703428	 0.0306838077	 0.410865
O	-2.1461997758	-2.9697952097	 0.1821381506	-0.468598
C	 0.2899375033	-2.6665854036	-0.3757376616	-0.381592
C	 0.0717175772	-2.1339047147	 1.0351882522	-0.085944
H	-0.4416099607	 1.8167829888	 0.5830036791	 0.280292
H	 0.7814444919	-0.2706148057	-0.820538241	 0.076874
H	 0.9348634567	-0.3121489265	 2.0770176174	 0.065035
H	-1.9467986552	-0.9359895276	 2.1397464933	 0.112965
H	-1.5571008358	 0.7602784449	 1.7636420922	 0.078425
H	-2.1229821181	-0.2604823831	-0.7118564823	 0.059717
H	-2.5122425096	-3.1423899659	-0.6921824981	 0.282384
H	 0.3097884356	-3.7509306374	-0.4260043532	 0.113628
H	 0.9430112948	-2.1882485496	-1.0953644176	 0.118057
H	 0.0730976964	-2.8427283695	 1.8551604609	 0.099845
