16
gdb 14013	4.25385	1.34338	1.22395	2.94	66.59	-0.2578	-0.0403	0.2174	1015.0946	0.128997	-383.717477	-383.709929	-383.708984	-383.749807	27.598	
O	-0.9767657697	 1.0536074386	 0.5446431915	-0.249328
C	 0.0157707976	 1.1306265711	-0.1341934359	 0.152285
C	 1.0725535613	 2.1643945666	 0.0574178822	-0.157344
O	 2.3724855366	 1.8101633978	-0.4539386376	-0.274601
C	 1.6774316182	 2.8334911181	-1.1175725912	 0.452037
C	 1.2418037765	 2.8196523405	-2.5879041103	-0.314288
C	 1.340818975	 4.375296812	-2.5611531286	-0.211582
C	 2.1269219961	 4.2936281523	-1.2170880116	-0.30911
H	 0.2243659394	 0.4281075197	-0.9709662977	 0.088835
H	 1.0597168885	 2.6841598451	 1.0141583097	 0.116205
H	 2.0120406541	 2.3616613461	-3.2153234731	 0.123052
H	 0.2754715008	 2.3770956246	-2.8368719825	 0.11616
H	 1.8570358495	 4.844671926	-3.399271119	 0.111981
H	 0.3642235431	 4.848270095	-2.439615433	 0.116755
H	 1.8339584309	 4.969667833	-0.411178752	 0.11545
H	 3.2097968321	 4.3582246033	-1.3586208108	 0.123493
