22
gdb 17966	2.43417	2.20565	1.35219	0.2915	83.	-0.2339	0.0253	0.2592	1001.1092	0.203538	-313.085473	-313.077743	-313.076799	-313.117008	31.111	
C	-0.0354416474	 1.4609570238	-0.0732767315	-0.182958
C	 1.3441462767	 2.155553555	 0.0265559608	-0.171463
C	 1.7701872855	 2.6398526768	 1.4236696382	-0.18349
C	 1.7162540243	 1.5769249461	 2.5457330843	-0.242328
C	 2.4101513421	 0.2963144271	 2.1748637172	-0.03738
C	 1.8144512656	-0.7330627277	 1.5711367012	-0.045528
C	 0.3506140215	-0.8070814522	 1.2056710147	-0.242095
C	-0.034226445	-0.0808192565	-0.1036138902	-0.175017
H	-0.6914128013	 1.80970893	 0.736550289	 0.088866
H	-0.5194297239	 1.7912726068	-1.0000012013	 0.09239
H	 2.1110146928	 1.4834568723	-0.3742247023	 0.098195
H	 1.3455099996	 3.0342002408	-0.6293315182	 0.087681
H	 2.7907180615	 3.0373683525	 1.3504477212	 0.091734
H	 1.1358556797	 3.4833092243	 1.7261032151	 0.091437
H	 2.1620460402	 2.0036229098	 3.4517279316	 0.092773
H	 0.6668593016	 1.3738637631	 2.787037056	 0.100607
H	 3.4807404892	 0.2459027888	 2.3653966999	 0.078484
H	 2.4196615162	-1.5935966039	 1.2921580221	 0.08022
H	 0.0669759655	-1.8608136339	 1.1045633725	 0.093231
H	-0.2670817284	-0.4057101582	 2.0193674001	 0.102672
H	-1.0436009092	-0.4104874102	-0.3815534468	 0.088149
H	 0.6289068032	-0.4197783647	-0.9106141933	 0.093821
