14
gdb 35414	3.13394	1.72202	1.41543	5.8316	64.45	-0.2761	-0.0035	0.2725	897.793	0.10111	-436.609162	-436.60246	-436.601515	-436.640408	25.767	
N	-0.1717698213	-1.190258462	-0.1792991953	-0.328765
C	-0.0603177058	-0.0510128048	-0.022668727	 0.307052
C	 0.0350172718	 1.4053078693	 0.0777195156	-0.019619
O	-0.1735272975	 1.934780222	 1.4081251091	-0.284694
C	 1.0735009886	 2.6579542526	 1.3670737249	 0.08764
C	 2.3037778486	 1.9120829666	 1.9603347762	-0.001135
O	 2.1409090885	 0.5293056233	 1.6609927595	-0.206118
C	 2.6335299846	 1.3660906696	 0.6218138832	 0.016761
C	 1.4277320023	 2.091455669	-0.0258023374	-0.151421
H	-0.6907974658	 1.8413381272	-0.61980169	 0.130141
H	 0.9762590794	 3.7205458404	 1.5943178723	 0.099433
H	 2.9237494237	 2.1698884884	 2.8109428259	 0.119115
H	 3.5790799699	 1.0985671558	 0.1663420339	 0.124477
H	 1.6282946732	 2.7177869025	-0.891391961	 0.107134
