21
gdb 91920	2.43446	1.45808	1.02487	2.0171	77.51	-0.2587	0.0777	0.3364	1212.9035	0.183565	-424.228933	-424.220376	-424.219431	-424.261798	33.726	
C	 0.0324861389	 1.5863777945	-0.0250611413	-0.403295
C	-0.0019249628	 0.0558757017	 0.0094697583	 0.020819
C	 0.6706232309	-0.546945489	-1.2404571992	-0.225943
C	 0.9513468825	-2.0345233865	-1.1272014839	 0.03083
O	 2.1026010007	-2.4125634944	-0.3552242226	-0.266364
C	 0.8019112829	-2.7525042209	 0.1492492421	 0.020938
C	 0.4084794412	-2.0207753261	 1.4147179351	 0.107028
O	 1.0850792692	-2.5737492837	 2.5373187454	-0.442381
C	 0.6338905905	-0.508952453	 1.2889110675	-0.227496
H	 1.0640771354	 1.9552042166	 0.0144515392	 0.11661
H	-0.4243912417	 1.9745769053	-0.9417735966	 0.111286
H	-0.5073760315	 2.0137122089	 0.8261315933	 0.113783
H	-1.0563425619	-0.2590053341	 0.0002651703	 0.072455
H	 0.042955162	-0.3682579058	-2.1210735948	 0.099907
H	 1.6246778202	-0.0380620171	-1.431562838	 0.113003
H	 0.8496275713	-2.6124420841	-2.0461406821	 0.092151
H	 0.5854017026	-3.8211507812	 0.1433347271	 0.092847
H	-0.6557499655	-2.2137513444	 1.6029359292	 0.088599
H	 2.0291865767	-2.5143775736	 2.3483255507	 0.286004
H	 1.7135062675	-0.3115108178	 1.2816394202	 0.099072
H	 0.221730951	-0.0199515455	 2.1774831302	 0.100146
