23
gdb 118983	3.40782	0.8994	0.87853	1.5671	87.75	-0.2474	0.0157	0.2631	1499.3839	0.205215	-388.311599	-388.301687	-388.300743	-388.34675	37.355	
C	-0.0528756784	 1.6303346175	 0.1340350284	-0.382471
C	 0.0193216205	 0.1027563929	 0.05604965	-0.173975
C	-1.3641438089	-0.544337988	-0.0732478282	-0.19554
C	-1.36837277	-2.0790316813	-0.0614546519	 0.356076
O	-0.7439704611	-2.4522973862	 1.1807786504	-0.471336
C	-2.8084472698	-2.6663365015	-0.1838769602	-0.267928
C	-2.7165879051	-3.883827713	-1.137593435	-0.269132
C	-1.3555006278	-3.7238593305	-1.7699794944	-0.07254
C	-0.6458241608	-2.7397337752	-1.2198187412	-0.130741
H	 0.9443470885	 2.0724173815	 0.2254845764	 0.108419
H	-0.5236904703	 2.0549171793	-0.7601873855	 0.109053
H	-0.6407639149	 1.9547300688	 1.000102315	 0.113207
H	 0.644396964	-0.1845438521	-0.7990115279	 0.088514
H	 0.5118906814	-0.2966787107	 0.9475901204	 0.116719
H	-1.9975440928	-0.2062625652	 0.7580702143	 0.097835
H	-1.8509100555	-0.2057324317	-0.9961913693	 0.090416
H	-0.5545495089	-3.3952385417	 1.1339640287	 0.27164
H	-3.1886431365	-2.919149111	 0.8085353397	 0.105333
H	-3.4785555882	-1.9128124514	-0.6081729658	 0.10135
H	-2.7944081566	-4.8448225161	-0.611164812	 0.1056
H	-3.5202762419	-3.8872089183	-1.8829446847	 0.10849
H	-1.0105722881	-4.3656613138	-2.5745154563	 0.094912
H	 0.3656880912	-2.4638555722	-1.495092551	 0.096099
