13
gdb 125210	3.52814	1.65164	1.13297	5.2762	68.29	-0.2424	-0.0646	0.1778	982.6256	0.090346	-448.890344	-448.883126	-448.882182	-448.922986	26.128	
C	-0.0238859963	 1.5365159018	 0.0941865595	-0.512182
C	 0.0076472809	 0.0552793973	-0.0748493531	 0.170758
C	-0.008683955	-0.7864486643	-1.1713939633	 0.287952
O	-0.0532241808	-0.824083614	-2.4931722752	-0.30135
N	-0.023225971	-2.359360275	-2.7800607523	-0.01238
N	 0.0281963701	-2.9627476967	-1.7072545857	-0.159732
C	 0.0421905272	-2.0856449635	-0.6444376264	 0.328663
N	 0.0881611914	-2.1388322495	 0.6833154287	-0.309728
N	 0.0665228156	-0.8277510087	 0.9852161889	-0.229159
H	 0.8714481583	 1.909454409	 0.6042700006	 0.145523
H	-0.0712035471	 2.0136010907	-0.8863690802	 0.161285
H	-0.8981204132	 1.8644971245	 0.6677897668	 0.145471
H	 0.0936111599	-0.5707425416	 1.9598334516	 0.28488
