17
gdb 98614	4.5007	0.96012	0.87945	1.0585	69.55	-0.2506	-0.0432	0.2074	1305.5663	0.134484	-458.89406	-458.88589	-458.884945	-458.928174	30.257	
O	-0.4846764142	 1.5400795693	-1.2608098861	-0.420044
C	-0.6250255433	 0.1541111629	-1.2776389933	-0.128105
C	-1.5126010283	-0.333738306	-0.1401046231	 0.318679
O	-1.9301470298	 0.4767028572	 0.664277803	-0.333416
C	-1.8035757564	-1.8107609327	-0.1049370394	-0.082461
C	-2.3943032305	-2.5413925604	 1.1334820432	 0.042642
C	-3.7735148285	-1.8761863814	 0.913058459	-0.230443
C	-3.227945866	-2.3892506336	-0.4373806408	 0.038848
O	-2.8159769735	-3.6399461884	 0.2262103069	-0.305966
H	-0.958982867	 1.8313169118	-0.4650286301	 0.29455
H	-1.0574059302	-0.1954376096	-2.2304955705	 0.119674
H	 0.3497119446	-0.3565987826	-1.1823667972	 0.119753
H	-1.0227456634	-2.3869840447	-0.6070804295	 0.098406
H	-1.8854450655	-2.8150319763	 2.0570985465	 0.108435
H	-4.6153977806	-2.4517545382	 1.298009355	 0.113751
H	-3.8556996518	-0.8035433736	 1.0768403481	 0.137976
H	-3.7064758256	-2.4654640137	-1.4139168816	 0.107721
