18
gdb 35696	2.27904	1.62187	1.13199	3.7049	76.52	-0.2385	0.0105	0.2491	1104.1532	0.149434	-398.091751	-398.083612	-398.082668	-398.124719	30.713	
N	-0.1320256588	-0.6605861769	-1.238067083	-0.335291
C	-0.0531933271	 0.3192816764	-0.6287391842	 0.301755
C	 0.0887572591	 1.5703683946	 0.1107101642	-0.196715
N	 0.0817016427	 1.4563358675	 1.5808326807	-0.310501
C	 1.1275991202	 2.5011123608	 1.69701573	-0.231905
C	 1.5141705514	 2.2471309874	 0.2240935617	 0.349181
C	 2.7583779611	 1.4271523839	-0.1874334949	-0.292959
C	 2.8908711938	 2.4210583977	-1.3694015898	-0.163346
N	 1.9365745969	 3.3149130304	-0.6678534891	-0.355957
H	-0.6311522597	 2.298752619	-0.2955840011	 0.101394
H	-0.8082536222	 1.6576379746	 2.0224440518	 0.230606
H	 0.745909962	 3.523481505	 1.8312529761	 0.100045
H	 1.8878752519	 2.2984766655	 2.4577617423	 0.114203
H	 3.5675600362	 1.5096817746	 0.5405267332	 0.115777
H	 2.593603642	 0.378816806	-0.4353666242	 0.13868
H	 3.8739626455	 2.8686661994	-1.5432343072	 0.108108
H	 2.5167722043	 2.0071706293	-2.3138636172	 0.109635
H	 1.2195790907	 3.7663684948	-1.2254457294	 0.217291
