18
gdb 48332	2.20665	1.35066	1.05234	4.8992	76.2	-0.2635	-0.0403	0.2231	1195.2661	0.146318	-401.962767	-401.953616	-401.952672	-401.997691	32.503	
O	-0.5361278163	 0.127374228	-0.2761653523	-0.245825
C	-0.2179674636	 1.1976681483	 0.1717563731	 0.110184
C	 1.1428160545	 1.8348232394	-0.0170188291	 0.240086
C	 1.5410643905	 2.6688178368	 1.2142338346	-0.428406
C	 1.7751161459	 1.8518422424	 2.4053525875	 0.268407
N	 1.9562737473	 1.1899503355	 3.3350082334	-0.298741
C	 2.2608893678	 0.916778967	-0.5811616352	-0.268241
C	 2.5689990493	 1.9712788163	-1.6767486239	-0.209753
C	 1.2328808553	 2.687043239	-1.3418333572	-0.275985
H	-0.9531096254	 1.8258497375	 0.7284774409	 0.079168
H	 2.4516942152	 3.2386419277	 0.9998996063	 0.157592
H	 0.7576868885	 3.4030787223	 1.4414388691	 0.154324
H	 3.0638297329	 0.6545248309	 0.110942531	 0.119353
H	 1.8235989834	 0.0002548151	-0.9811176047	 0.138681
H	 3.4416190599	 2.5860413552	-1.4420717727	 0.109402
H	 2.6768081702	 1.6024383876	-2.6981371394	 0.11468
H	 0.4326095533	 2.43319886	-2.0405372291	 0.126529
H	 1.2537558015	 3.7722100811	-1.2120454925	 0.108545
