19
gdb 91102	3.15156	1.74366	1.38527	0.8886	80.36	-0.2185	-0.0178	0.2008	982.7583	0.160869	-385.838335	-385.831205	-385.830261	-385.869459	29.404	
C	 0.0061508032	 1.5114912786	 0.1937380448	-0.407555
C	-0.0410092323	 0.0032726382	 0.074003035	 0.103337
O	 0.9504379519	-0.4289634779	-0.9236750952	-0.289599
C	 1.2966969123	-1.7792211988	-0.634489219	 0.105248
C	 2.1465452437	-2.3290371745	 0.5718822368	-0.081521
C	 2.6879475146	-1.4962883576	 1.7350259922	-0.267
C	 1.5600869908	-0.4972951542	 1.9309943225	-0.09019
C	 0.4799601049	-0.8443152561	 1.2159413271	 0.06789
C	 0.6450909065	-2.2341442527	 0.6101997522	-0.171154
H	 0.9975887433	 1.8523264282	 0.5003450275	 0.125038
H	-0.2274208019	 1.969942694	-0.7710609795	 0.128697
H	-0.7321237768	 1.8558787237	 0.9243979937	 0.119966
H	-1.0323551669	-0.3199428408	-0.2718258429	 0.075618
H	 1.3570431604	-2.3802927871	-1.5363430393	 0.097292
H	 2.628563089	-3.2767317836	 0.3436851889	 0.077974
H	 2.9193582976	-2.1327478216	 2.6018582523	 0.107225
H	 3.60937552	-0.948467721	 1.496566389	 0.114662
H	 1.7518097047	 0.5020573798	 2.3069371545	 0.099056
H	-0.0827786949	-3.0283903365	 0.7361189394	 0.085016
