14
gdb 48861	3.96741	1.47564	1.22862	1.8736	69.07	-0.2333	-0.0724	0.1609	963.344	0.098537	-436.549439	-436.542279	-436.541335	-436.581078	27.106	
O	-0.2671633184	 0.3464107956	-0.5290797481	-0.258533
C	 0.0768145161	 1.2077617002	 0.242113603	 0.075251
C	 1.322480998	 1.9849022539	 0.077730652	 0.309884
O	 1.6191044249	 3.0437007423	 1.092562443	-0.296458
C	 2.6059825528	 3.3614368527	 0.1418285143	 0.240083
N	 3.8279708342	 3.1038963362	 0.3430030791	-0.2165
C	 4.0220099631	 1.9088179872	-0.5542559883	-0.174925
C	 2.5716824773	 1.4842689386	-0.8908006456	-0.119272
C	 1.836372213	 2.7501235915	-1.0714109193	-0.209518
H	-0.5167489816	 1.4908271261	 1.134851778	 0.111088
H	 4.5974265786	 2.0901187807	-1.4740396717	 0.124
H	 4.5650111974	 1.1822354802	 0.0561280265	 0.145911
H	 2.3366978687	 0.5906424759	-1.461029502	 0.134057
H	 1.3186512359	 3.215112719	-1.8994248809	 0.134934
