16
gdb 124670	3.35124	1.10193	0.96677	4.8578	70.95	-0.2444	-0.0253	0.2191	1224.1458	0.124898	-434.103289	-434.094784	-434.093839	-434.138432	29.601	
C	 0.0151630129	 1.5162256168	-0.0600310457	-0.40693
C	-0.0279260297	-0.0179561948	 0.0873424319	-0.154419
C	 0.606019165	-0.6368736191	-1.1594829198	 0.163784
O	-0.0039711384	-1.1901024523	-2.0338348227	-0.243023
C	 0.6970560577	-0.4982023163	 1.3091360963	 0.321882
N	 1.8418860232	 0.0325939243	 1.7208109313	-0.267439
N	 2.1413211245	-0.7308709157	 2.7976659352	-0.173189
C	 1.1902588565	-1.665822709	 2.9870462801	 0.015296
N	 0.2594581116	-1.5538072331	 2.0613115182	-0.297994
H	 1.0454802007	 1.8709830346	-0.1481502895	 0.142157
H	-0.5426544248	 1.8289221785	-0.946927745	 0.129296
H	-0.4282422742	 1.9922521825	 0.8183756762	 0.131393
H	-1.059316358	-0.3740896913	 0.1352470204	 0.117192
H	 1.7115947313	-0.5046702769	-1.2079597429	 0.08474
H	 2.9750030427	-0.5435212584	 3.3303623221	 0.285211
H	 1.2167626791	-2.3851492797	 3.7917177139	 0.152043
