13
gdb 35150	2.54078	1.32987	1.01469	4.439	77.25	-0.2685	-0.025	0.2435	1141.9435	0.086398	-378.372802	-378.364105	-378.363161	-378.406201	31.746	
C	-0.0692796719	-1.2176004017	 0.0230757208	-0.412312
C	-0.0486429313	-0.0177416104	 0.0293322221	 0.312408
C	-0.017836119	 1.4222668436	 0.0056684192	-0.034292
N	 0.5105837634	 2.0832185305	 1.2249650511	-0.32703
C	 1.3194008623	 2.1581922176	 0.0083325573	-0.239706
C	 2.567221953	 1.4360980759	-0.0025166433	 0.351396
N	 3.5756210613	 0.8738902207	-0.0494835442	-0.322908
C	-1.0895876435	 2.0710080519	-0.7098349188	 0.260291
C	-1.9869969474	 2.6272330613	-1.2834142988	-0.422738
H	-0.0816361431	-2.2799978098	 0.0265357171	 0.211693
H	 0.0229538157	 2.9653373962	 1.3678973485	 0.259358
H	 1.3359538462	 3.0859440787	-0.5565137411	 0.149835
H	-2.7833272958	 3.1076141155	-1.7974288899	 0.214006
