18
gdb 66689	2.55797	1.98812	1.62347	1.1165	74.43	-0.2129	0.0697	0.2826	913.5091	0.148095	-401.857013	-401.849674	-401.84873	-401.888264	29.818	
C	-0.0788792056	 1.447801263	 0.037290576	-0.51796
C	 0.0501744457	-0.0432541262	 0.0562111259	 0.281129
C	-0.5500204972	-1.1058306978	-0.8394603517	-0.181827
N	 0.4861469761	-2.0958641779	-0.3304401233	-0.176492
C	 1.2564177216	-0.946923313	 0.3585489725	-0.053311
C	 1.0491262854	-1.6195823291	 1.7292387461	-0.256521
C	-0.2159147148	-2.1667826398	 1.0451501354	-0.074159
C	-1.0640584945	-0.9764607174	 0.5692759578	 0.32081
O	-2.225856016	-0.442217856	 1.0787291441	-0.461539
H	 0.5434392117	 1.8982610725	-0.7435863993	 0.119229
H	-1.1179789514	 1.7399768292	-0.1417700886	 0.13259
H	 0.2210983171	 1.8812070196	 0.9985897295	 0.122453
H	-0.9958189845	-1.0970402657	-1.826935548	 0.095555
H	 2.2429652788	-0.6814597765	-0.0251179794	 0.072741
H	 1.7873718366	-2.406466376	 1.9046363968	 0.111872
H	 0.9357154415	-0.992365724	 2.6169417992	 0.103209
H	-0.6976093559	-3.1024965655	 1.3344318688	 0.07068
H	-2.9581166346	-1.0237698892	 0.8466174683	 0.29154
