19
gdb 108560	3.31826	1.4718	1.26566	1.735	74.12	-0.2383	0.0778	0.3161	1049.9242	0.159846	-422.97766	-422.969921	-422.968977	-423.009875	30.221	
C	-0.012858312	 1.2662778694	-0.3023887453	-0.257468
O	-0.115488866	-0.0427353684	 0.2332041781	-0.294129
C	-1.3887941278	-0.5829165373	 0.1578167117	 0.420005
C	-2.4755975775	-0.0813716271	 1.1146649573	-0.159444
O	-3.3306167011	-1.2072982512	 1.3318907896	-0.262535
C	-3.0265206393	-2.1580407189	 0.3183885739	 0.078108
C	-3.2972551594	-1.5907160159	-1.1168933329	-0.25731
C	-1.8213821292	-1.1948707262	-1.1731362452	-0.139436
C	-1.5078996582	-2.0668427954	 0.0441781573	-0.16514
H	 1.0402987195	 1.5496785816	-0.2445326135	 0.130114
H	-0.3393170195	 1.3001922172	-1.3507511708	 0.111713
H	-0.6053749634	 1.9920790887	 0.2720270921	 0.114471
H	-2.028675168	 0.2260062882	 2.0675922185	 0.110378
H	-3.0555859461	 0.760818297	 0.7129765828	 0.095011
H	-3.4844821758	-3.1080088999	 0.5882614685	 0.087139
H	-3.5215054183	-2.3921910038	-1.826573904	 0.104884
H	-4.0640545742	-0.8126940399	-1.1929597121	 0.096635
H	-1.2135563346	-1.0519710029	-2.0589204325	 0.088986
H	-0.7114510392	-2.7697207854	 0.2445482865	 0.098018
