19
gdb 78677	3.13792	1.40633	1.10998	3.3295	80.55	-0.2346	0.0119	0.2466	1137.705	0.158456	-385.8474	-385.839138	-385.838193	-385.87991	31.907	
C	-0.159175161	 1.5888071115	-0.0303844959	-0.425781
C	-0.0168451337	 0.0757046998	-0.000668417	-0.01452
C	 1.2099126379	-0.5983691457	-0.6561309666	-0.077646
C	 2.1571000633	-0.2530083869	 0.5584781587	-0.206385
C	 0.7414074324	-0.6067517446	 1.1604705555	-0.077644
C	 1.0826828415	-1.8803850061	 0.2738757619	 0.184942
C	 0.2459364374	-3.105523156	 0.0524200614	-0.531376
C	 2.5505052579	-1.720658431	 0.6531649789	 0.402986
O	 3.5032498607	-2.4003172469	 0.8957381182	-0.339318
H	 0.7807200315	 2.0932125747	 0.2142588843	 0.117479
H	-0.4749392229	 1.9313131735	-1.0220733958	 0.119544
H	-0.9158032592	 1.9234223576	 0.6879552785	 0.119545
H	-0.9728158216	-0.401614258	-0.2494184272	 0.06982
H	 1.5199548294	-0.61790622	-1.7022046242	 0.084442
H	 2.7260881858	 0.6603886058	 0.7094361247	 0.09281
H	 0.5069130891	-0.6360276168	 2.2258031784	 0.084441
H	-0.7850007132	-2.8480982571	-0.212282362	 0.126192
H	 0.6598675416	-3.7163958054	-0.7561446665	 0.135235
H	 0.2185422932	-3.7242887584	 0.9550052347	 0.135235
