23
gdb 108854	2.06614	1.25971	0.84292	1.5043	89.03	-0.223	0.0348	0.2578	1451.1877	0.204922	-388.309037	-388.298894	-388.29795	-388.344071	37.799	
C	-0.1133896318	 1.5991817967	-0.0388713025	-0.394144
C	 0.0179391308	 0.0735149975	 0.0280063235	-0.013364
C	 0.7977093298	-0.5457178032	-1.159649375	-0.226282
C	 1.5772723006	-1.754876561	-0.5848135445	-0.071757
C	 2.9299273927	-1.9922960813	-1.2683825679	-0.402936
C	 1.6411561488	-1.4189691752	 0.89804616	 0.303438
C	 2.5111269808	-2.1902495083	 1.8377699291	-0.182583
O	 2.2763382333	-1.7697335032	 3.1703777789	-0.414544
C	 0.7959391405	-0.4397010071	 1.2193073345	-0.16842
H	 0.8737186134	 2.0744414474	-0.0583391956	 0.112111
H	-0.6560251189	 1.9103800577	-0.9382911566	 0.108534
H	-0.6558910383	 1.9896702272	 0.8288318748	 0.110712
H	-1.0002107982	-0.3466439404	 0.0614397001	 0.072871
H	 0.1546815891	-0.8172401914	-2.0021418716	 0.089853
H	 1.5197295958	 0.1935895396	-1.5298862073	 0.092591
H	 0.9794083003	-2.672962678	-0.7062380783	 0.072978
H	 3.5880852272	-1.1247488355	-1.1449415567	 0.114609
H	 3.4461592171	-2.8689670279	-0.8625398692	 0.109706
H	 2.7957323304	-2.1599488763	-2.3423255938	 0.113053
H	 2.3049227134	-3.2700232361	 1.7156243917	 0.090176
H	 3.5702391863	-2.0512937497	 1.5591727724	 0.095634
H	 2.9005329737	-2.2267372788	 3.7407469066	 0.287506
H	 0.6410083534	-0.0734133728	 2.2272477375	 0.100257
