20
gdb 23133	1.8541	1.60892	0.9089	0.9255	79.16	-0.2402	0.0018	0.2421	1299.4443	0.170328	-440.249337	-440.239999	-440.239055	-440.284287	34.422	
C	-0.0363843613	 1.4361325207	 0.0918395547	-0.241717
O	-0.0229128109	 0.038993279	-0.1287461749	-0.244868
C	-1.2781608542	-0.5927303348	 0.0004570052	 0.062748
C	-1.2016034093	-1.9885210505	-0.6436245613	-0.238854
C	-2.1813775756	-2.8601908064	 0.1586339674	-0.22759
C	-2.019236481	-2.3615315006	 1.6081249339	-0.299084
C	-1.7109704025	-0.89298639	 1.44128407	 0.390348
N	-1.804837893	 0.0345028176	 2.3070901319	-0.228158
O	-2.1897697175	-0.4710629851	 3.5628948704	-0.391066
H	 0.9753524041	 1.7963690638	-0.1113708618	 0.119381
H	-0.7373248426	 1.9408083356	-0.5922188669	 0.097944
H	-0.315019557	 1.6838177233	 1.122015668	 0.132899
H	-2.0535499994	 0.0224709061	-0.4863339167	 0.077326
H	-1.4091905137	-1.9649799293	-1.7155542049	 0.102631
H	-0.1745286129	-2.3467609721	-0.5109564398	 0.118345
H	-3.2093805034	-2.6859410596	-0.1801557062	 0.10559
H	-1.982475625	-3.9291726971	 0.0503841177	 0.103699
H	-2.8908911931	-2.5213670976	 2.2467450349	 0.127639
H	-1.1725879817	-2.8565899054	 2.1022232035	 0.127943
H	-2.24828572	 0.3296489124	 4.0949851551	 0.304843
