21
gdb 114364	3.0677	1.12289	1.10317	2.4992	79.13	-0.2371	0.0706	0.3077	1259.2276	0.181592	-424.180848	-424.171801	-424.170856	-424.215195	33.694	
C	 0.1987439884	 1.0888591142	-0.3429100771	-0.235512
O	 0.0291316164	-0.1981584704	 0.2061663666	-0.23369
C	-1.2960693922	-0.6318645944	 0.198482144	 0.16269
C	-1.9510988031	-1.1134004301	-1.1410712615	-0.296697
C	-2.3758379406	-2.4345959242	-0.4361300197	-0.113517
C	-1.3708991532	-3.6010086013	-0.5398043794	 0.168007
C	-0.6338763527	-3.9318967694	-1.8194807067	-0.410899
O	-0.5211622094	-2.9923608484	 0.471233196	-0.306131
C	-1.5309270418	-2.0256483682	 0.8090828228	 0.071172
H	 1.261172389	 1.3338606539	-0.2734097841	 0.129243
H	-0.1046882493	 1.130411138	-1.4000486178	 0.106435
H	-0.3788695532	 1.846995209	 0.2100259921	 0.102342
H	-1.9524314666	 0.1036602124	 0.6956222531	 0.059602
H	-2.7794430064	-0.4962701699	-1.4948143818	 0.100836
H	-1.2395329376	-1.2430332372	-1.9590701736	 0.108881
H	-3.4377247905	-2.6732149326	-0.4123874702	 0.073175
H	-1.8182313796	-4.5212874491	-0.1320936428	 0.070272
H	-0.1548501664	-3.0510518385	-2.2536613756	 0.127522
H	 0.1478217605	-4.6699917077	-1.6133630086	 0.130188
H	-1.3211502548	-4.3622769488	-2.5560815471	 0.114967
H	-1.8413464169	-2.0946454374	 1.8558046015	 0.071114
