16
gdb 123843	3.5659	1.52234	1.10768	3.1614	69.77	-0.2542	-0.0134	0.2408	1036.1526	0.127354	-437.88328	-437.876593	-437.875649	-437.914451	26.239	
C	-0.026956539	 1.4020960304	 0.0239712239	-0.081035
C	 1.4061553771	 1.966391064	 0.0242979002	-0.34514
C	 2.1748953746	 1.2659966089	-1.0539857787	 0.119014
C	 3.3411599774	 1.4812703498	-1.7138990931	-0.048477
O	 3.5673048855	 0.5012846625	-2.6053931742	-0.168707
N	 2.5170682692	-0.4172082671	-2.5490687765	-0.224687
C	 1.7099409287	 0.0491114264	-1.6321016903	 0.315278
C	 0.4062375499	-0.5708153652	-1.2155546419	-0.186142
O	-0.0258617022	-0.0182935654	 0.0178137631	-0.245147
H	-0.5632381203	 1.7015248503	 0.927713683	 0.116044
H	-0.5819738279	 1.7862560675	-0.8474295808	 0.096891
H	 1.3815517596	 3.0517564736	-0.12277233	 0.114574
H	 1.8621786595	 1.7832968378	 1.0046717635	 0.127709
H	 4.095500603	 2.2517050196	-1.6670535366	 0.151025
H	-0.3528315607	-0.4092301436	-1.9986963058	 0.116816
H	 0.5060992256	-1.6482715694	-1.0629502258	 0.141983
