21
gdb 35243	2.85208	1.06716	0.87624	0.7686	89.51	-0.239	0.0505	0.2895	1393.8229	0.182136	-349.899854	-349.89081	-349.889865	-349.934191	34.66	
C	-0.1723860898	-1.2604241803	 0.24477022	-0.476078
C	-0.1109982448	-0.0609900811	 0.1649538147	 0.337366
C	-0.0518406248	 1.3674738705	 0.0608556184	-0.197333
C	 0.5219486407	 2.1979297889	 1.2006263776	-0.30693
C	 1.2847199804	 2.0949070908	-0.0893280328	-0.022239
C	 2.5805105439	 1.3398945362	-0.1708616049	 0.0501
C	 3.1457700511	 0.9528736571	-1.5686629477	-0.230247
C	 4.5686399424	 1.2749889201	-1.0386377172	-0.209843
C	 3.9133128142	 2.0990702078	 0.1025867019	-0.23464
H	-0.2289146562	-2.3178825464	 0.3179560721	 0.193059
H	-0.8872272386	 1.8127004218	-0.4718037592	 0.11063
H	 0.0179070267	 3.1263487387	 1.4448841875	 0.116003
H	 0.9024947496	 1.6501570007	 2.0556475301	 0.125434
H	 1.2372467953	 2.9686181006	-0.7361162349	 0.083681
H	 2.5243907713	 0.4473913109	 0.460245316	 0.079256
H	 2.9428412508	-0.0560583361	-1.9344558064	 0.102167
H	 2.8306017096	 1.6703746757	-2.3339026878	 0.094187
H	 5.0689813069	 0.3812241734	-0.6546784728	 0.101723
H	 5.2564652516	 1.7944039697	-1.7097746393	 0.094206
H	 3.8280553306	 3.1578986758	-0.1645453974	 0.095104
H	 4.3433880692	 2.0294376951	 1.1048997021	 0.094394
