16
gdb 45980	3.31002	1.34055	1.03711	0.6961	74.77	-0.2448	-0.052	0.1928	1112.5955	0.125046	-437.912652	-437.90487	-437.903926	-437.945554	29.23	
N	 0.0396832229	 0.718224901	 1.2426092524	-0.49599
C	 0.0023137841	-0.0026383731	 0.1982384954	 0.3366
O	 1.0650362473	-0.8084099679	-0.1513996365	-0.252732
C	 1.4773064971	-0.8344036684	-1.513379631	-0.199026
C	 0.6507126674	-1.7444413149	-2.4263647497	 0.368619
O	 1.0476805329	-2.0280999012	-3.526830034	-0.285825
C	-0.6813778234	-2.2152739053	-1.8537000642	-0.357184
C	-1.5405402416	-1.030112062	-1.4848773167	-0.108891
C	-1.2176259998	-0.0635291687	-0.6181282633	-0.064073
H	 0.9527710552	 0.629379938	 1.6932006707	 0.226037
H	 1.4878852313	 0.1743465522	-1.9456080143	 0.14603
H	 2.5056706543	-1.2040140255	-1.5154606859	 0.154816
H	-1.1671696137	-2.8500444552	-2.595208067	 0.132687
H	-0.4654047438	-2.8188045821	-0.9627119062	 0.151415
H	-2.4980247462	-0.9615238343	-1.9926350648	 0.121894
H	-1.919915844	 0.7350316675	-0.4074459248	 0.125625
