20
gdb 107209	3.82494	1.26724	1.13518	1.921	77.96	-0.2221	0.0759	0.298	1142.3486	0.171739	-403.094126	-403.086101	-403.085157	-403.126485	31.697	
C	-0.3547828849	 1.2983567314	-0.1100832905	-0.253842
O	 0.22883349	 0.0204845994	 0.0701613985	-0.279063
C	 0.8050015338	-0.5012155434	-1.0834195769	 0.436512
C	-0.0908958975	-1.0918565655	-2.1396639654	-0.36302
C	 0.8098953195	-1.9907323287	-1.3056896951	-0.128417
C	 2.1886173758	-2.3620020142	-1.7943652732	-0.026311
C	 2.6951517113	-1.8406158352	-3.0894168763	-0.252914
N	 3.0502555508	-1.1533471484	-1.8414856102	-0.095199
C	 2.2046230288	 0.004961218	-1.4773577385	-0.252282
H	 0.3951383735	 2.0598622892	-0.3679523408	 0.111442
H	-1.1222011583	 1.2853012347	-0.8968952592	 0.108688
H	-0.8203074579	 1.5725947986	 0.839353911	 0.127849
H	-1.1458412242	-1.1390781871	-1.8886488377	 0.117789
H	 0.1082098791	-0.9300053501	-3.1928582656	 0.113215
H	 0.3320208733	-2.6474021355	-0.5889880218	 0.099958
H	 2.6333272488	-3.254603519	-1.3633392193	 0.092159
H	 3.5302994805	-2.3321851415	-3.5824033969	 0.113562
H	 1.9974304224	-1.3693798555	-3.7765272953	 0.108215
H	 2.1983945065	 0.7397561863	-2.2901501316	 0.103273
H	 2.6422422086	 0.4824106267	-0.5944195251	 0.118386
