17
gdb 74728	2.501	1.78047	1.24966	2.1439	73.56	-0.2377	-0.0404	0.1973	1018.1134	0.134252	-421.789491	-421.781354	-421.78041	-421.822339	30.538	
C	 0.2948748386	 1.4148647536	 0.0808859065	-0.509806
C	 0.1287109486	-0.0597575401	-0.0081566561	 0.320241
C	-0.0841331041	-0.9013970118	-1.0241006771	-0.205658
C	-0.1489973711	-2.2601735777	-0.3092248899	 0.01284
C	-1.0935004409	-1.943371452	 0.8868145774	-0.248268
C	 0.1759333282	-1.0648588919	 1.179521724	 0.230677
O	 0.9774644755	-2.1594172517	 0.6326444907	-0.320138
C	 0.5446046336	-0.6345035993	 2.5648790005	 0.037002
O	 0.1267678729	 0.3707225308	 3.0835306852	-0.257723
H	 1.286536508	 1.6800038054	 0.467789075	 0.137666
H	 0.1738274271	 1.883039329	-0.8996562842	 0.12502
H	-0.4294546795	 1.8513422763	 0.7762655968	 0.150678
H	-0.1933649846	-0.7092653251	-2.0813726333	 0.11185
H	-0.179881034	-3.1877172037	-0.8781996768	 0.087679
H	-2.0394955013	-1.4340946867	 0.6987975908	 0.113377
H	-1.1966345126	-2.7766900581	 1.5863717114	 0.113361
H	 1.2247986155	-1.3382922269	 3.092046389	 0.101202
