21
gdb 116390	2.47511	1.37048	0.92774	3.0464	80.92	-0.2332	0.0236	0.2568	1297.8926	0.184501	-420.417261	-420.408293	-420.407349	-420.451342	33.815	
C	 0.0169422605	 1.5658470701	 0.0118380886	-0.406113
C	 0.0198289196	 0.0361514664	-0.0667378676	-0.174249
C	-1.3826132384	-0.5799610594	-0.0532805066	-0.047018
N	-2.1414989138	-0.1992724645	-1.2482584959	-0.315559
C	-3.4686012797	-0.7964025892	-1.2418631813	-0.174381
C	-3.279861035	-2.2965155009	-1.3542231727	-0.053786
O	-2.4344304224	-2.8080970471	-0.3143652768	-0.261948
C	-1.3354347044	-2.0995512236	 0.0782047233	 0.409948
N	-0.3634822701	-2.6756139411	 0.6486106515	-0.509267
H	 1.0401897537	 1.9475324894	 0.0763843655	 0.120605
H	-0.4379945035	 2.0304361502	-0.8703215467	 0.111887
H	-0.5237933586	 1.9210775082	 0.8968806435	 0.113565
H	 0.5328956921	-0.2947921439	-0.9760426215	 0.106746
H	 0.5724732353	-0.3841080029	 0.7756279695	 0.132946
H	-1.9016526042	-0.2361987887	 0.8671722144	 0.078359
H	-2.2090953684	 0.8107087618	-1.2905987931	 0.225387
H	-4.0491351872	-0.5637586649	-0.3291053905	 0.088525
H	-4.0401717092	-0.4392992539	-2.1048438237	 0.107244
H	-4.2257472521	-2.8350536755	-1.2553659177	 0.113324
H	-2.8290715767	-2.538788797	-2.3245337499	 0.11567
H	-0.5366732675	-3.6819180233	 0.6943577379	 0.218117
