17
gdb 67518	2.48961	1.87212	1.54536	2.3569	72.96	-0.2467	0.0078	0.2545	935.5527	0.136153	-417.946854	-417.939359	-417.938415	-417.978468	29.554	
C	-0.0974810443	 1.5532954075	 0.0362880349	-0.474191
C	 0.0263165014	 0.0565509993	-0.0005813712	 0.218694
C	 0.7418735111	-0.8033440062	-1.0503807081	 0.050078
O	 1.560712252	-1.4252688339	-0.0090391147	-0.277877
C	 0.9497379466	-0.6551709816	 0.9770409798	 0.387916
N	 1.1573337097	-0.6000031168	 2.2113051868	-0.552796
C	-0.5912909915	-1.4975446588	-1.3361160676	-0.046601
C	-1.1947749542	-2.0781040927	-0.1232162587	-0.253179
N	-1.3199887358	-0.6229823498	-0.3141844046	-0.173233
H	 0.8869601884	 2.029283903	 0.0628867432	 0.127385
H	-0.6480592965	 1.911956191	-0.837517448	 0.129902
H	-0.6475678262	 1.8520196827	 0.9338922225	 0.149845
H	 1.3384977106	-0.4310510193	-1.8808438706	 0.102699
H	 1.8985042322	-1.2418212073	 2.4994101591	 0.231105
H	-0.9957510268	-1.6514989366	-2.3308677161	 0.104711
H	-2.1465627056	-2.5848712195	-0.2504918506	 0.130504
H	-0.5726478512	-2.4795039412	 0.6697936537	 0.14504
