25
gdb 123043	5.86083	0.50881	0.49122	1.5378	90.75	-0.2403	0.089	0.3293	2351.0582	0.228291	-389.485573	-389.474873	-389.473929	-389.522903	38.031	
C	-0.1747848019	 1.5559563105	 0.0623447933	-0.379183
C	-0.066027352	 0.0287097918	 0.0586237984	-0.163039
C	 0.7543119721	-0.5213704302	 1.230414481	-0.161199
C	 0.8630076515	-2.0493935285	 1.2342292451	-0.176824
C	 1.6869008374	-2.5981529308	 2.4046071485	-0.205647
C	 1.7435993613	-4.1147968987	 2.4230100017	 0.164235
C	 2.2981981335	-4.8178625752	 3.6830412876	-0.300516
C	 0.9188849716	-5.5035996335	 3.7322623778	-0.056551
O	 0.4376615094	-4.7178433283	 2.6234681001	-0.293451
H	 0.8146217521	 2.0235660616	 0.0041138387	 0.111496
H	-0.7640124069	 1.9181729215	-0.786048084	 0.10975
H	-0.6551590372	 1.9163580141	 0.9789726775	 0.112454
H	-1.0715957344	-0.4113306226	 0.0844526835	 0.095939
H	 0.3847260655	-0.3043653013	-0.8857485269	 0.092713
H	 1.7620692723	-0.082507521	 1.204826017	 0.087275
H	 0.3046060128	-0.1866023782	 2.1758263559	 0.090926
H	-0.1392839399	-2.492776342	 1.2751265215	 0.116489
H	 1.3094320195	-2.3854925518	 0.2877991116	 0.088648
H	 2.7156545956	-2.2131671766	 2.3580905068	 0.090887
H	 1.2601061109	-2.2515613776	 3.3551350976	 0.092865
H	 2.1897117841	-4.4846589756	 1.4871338813	 0.067461
H	 3.1595375383	-5.4706817099	 3.5347512418	 0.107373
H	 2.4993823535	-4.1397013348	 4.5154150162	 0.107529
H	 0.9268113174	-6.5765060022	 3.4990670153	 0.098164
H	 0.3219067936	-5.3453082206	 4.6381224226	 0.102207
