21
gdb 66322	2.39581	1.35002	1.25182	0.7034	90.24	-0.2407	0.0179	0.2586	1171.0251	0.182576	-349.944464	-349.9355	-349.934555	-349.977545	35.488	
C	-0.028592866	 1.5418223921	 0.000425942	-0.425886
C	-0.0256753836	-0.004990673	-0.0045799752	 0.052881
C	 0.6801124262	-0.5259543591	-1.2850297342	-0.219305
C	 1.0302233861	-2.0121531571	-1.1770061063	-0.21986
C	 2.0048049068	-2.2571587334	-0.0167568876	-0.244896
C	 1.6112455567	-1.4897939779	 1.2173273866	-0.063378
C	 0.7052840181	-0.5145430104	 1.2318112557	-0.060645
C	-1.4161638267	-0.4803994367	 0.0361958807	 0.370049
C	-2.5572154337	-0.8600467918	 0.0696522001	-0.524588
H	 0.9992172057	 1.9178298221	 0.0092043468	 0.116085
H	-0.5368349077	 1.928999627	-0.8876355611	 0.121521
H	-0.5466505391	 1.9274243073	 0.8830982131	 0.121707
H	 0.0404874494	-0.3346146365	-2.15216923	 0.100294
H	 1.5987680097	 0.0586203978	-1.4241665665	 0.092812
H	 0.1091405204	-2.5822337873	-1.0082915147	 0.114693
H	 1.4604157875	-2.3712067895	-2.1176408307	 0.091183
H	 2.0590967753	-3.3276647371	 0.2176744133	 0.104322
H	 3.0265557483	-1.9720928511	-0.3108148963	 0.106391
H	 2.1058464514	-1.764903105	 2.1464825008	 0.08674
H	 0.4459955426	-0.0207929114	 2.1652303637	 0.087182
H	-3.5621971674	-1.200994849	 0.1041477899	 0.1927
