20
gdb 106161	2.83826	1.48657	1.46855	1.0134	77.73	-0.2104	0.0624	0.2728	1037.3465	0.171785	-403.082368	-403.074575	-403.073631	-403.114596	30.787	
C	 0.0342843141	 1.5756885121	 0.0669421321	-0.387531
C	 0.0299817253	 0.0428866515	 0.0176631565	-0.329744
C	 0.6389620636	-0.5004854604	-1.2392530458	 0.358603
C	 0.2236925507	-0.3005070561	-2.7248600786	 0.044765
C	 1.6108224416	 0.3196876512	-2.9497742376	-0.189251
N	 2.1030706641	-0.173014863	-1.6116244131	-0.19977
C	 2.366554021	-1.6562643801	-1.6984309352	-0.189496
C	 0.8631320854	-1.9746396778	-1.6691696411	 0.024822
O	 0.2448968119	-1.7287655432	-2.9541051211	-0.306489
H	 1.0548412801	 1.9558574755	-0.0348453249	 0.140925
H	-0.5701712053	 2.0007922528	-0.741499011	 0.115922
H	-0.3743288542	 1.9384872628	 1.0142268113	 0.115168
H	 0.5882937659	-0.3544745255	 0.8754796584	 0.107732
H	-0.9946075567	-0.3412356458	 0.1073696609	 0.107653
H	-0.6817748561	 0.1689872641	-3.1177196448	 0.077377
H	 2.1768841111	-0.0320881476	-3.8170536703	 0.107909
H	 1.5889322967	 1.4148703324	-2.9462697517	 0.107997
H	 2.9293822014	-1.983522778	-2.5772873251	 0.108426
H	 2.8833670299	-1.9853746808	-0.7902847811	 0.10746
H	 0.4806207694	-2.879946414	-1.1908022777	 0.077522
