18
gdb 105717	2.31591	1.48438	1.19948	4.3425	77.79	-0.2638	-0.0123	0.2515	1125.0179	0.146854	-401.967281	-401.958398	-401.957454	-402.00106	32.534	
C	 0.001872597	 1.5418415286	-0.178724312	-0.39846
C	-0.0443121274	 0.0247618562	 0.0120727359	-0.202553
C	-1.4753536429	-0.5409689567	 0.1112734975	 0.20435
O	-2.2095080698	-0.2035346612	-1.0669559895	-0.288669
C	-2.8374465191	-1.365131281	-1.6151391122	-0.134516
C	-2.295185207	-2.5123492021	-0.8134934951	-0.092147
C	-1.5316320582	-2.0563658016	 0.1697130534	-0.121738
C	-2.1654563016	 0.0342785406	 1.2988142448	 0.26747
N	-2.6913347298	 0.4681914937	 2.2321337817	-0.3446
H	 1.0365541743	 1.8822738725	-0.2752920786	 0.116514
H	-0.5424366758	 1.8328251422	-1.0804398792	 0.139267
H	-0.4469411001	 2.0615138063	 0.6732317109	 0.140708
H	 0.4305003534	-0.4849970029	-0.8330758692	 0.109647
H	 0.5017212432	-0.2662900048	 0.9172125875	 0.111126
H	-3.9320447681	-1.2833742239	-1.5323921055	 0.123575
H	-2.5902410496	-1.4298056879	-2.68327061	 0.12122
H	-2.5265958488	-3.5478323112	-1.0272297736	 0.122756
H	-1.0166217598	-2.6229328067	 0.9332691632	 0.12605
