19
gdb 124684	3.82931	0.92221	0.88321	2.4568	77.51	-0.2334	0.0251	0.2584	1373.9139	0.1605	-419.226551	-419.217388	-419.216443	-419.261357	33.26	
C	-0.0618928254	 1.6240552081	 0.3696136186	-0.396336
C	-0.02891547	 0.1172162445	 0.0619192233	-0.097323
C	 0.8318397851	-0.6449288351	 1.082623108	-0.070155
O	 2.1455178191	-0.1141962801	 1.0300495858	-0.419214
C	-1.3970367745	-0.4935752775	-0.0329928341	 0.378929
C	-1.9826371431	-1.2837294006	-1.0048373386	-0.321712
C	-3.2766701869	-1.5674363164	-0.5197629143	-0.004521
N	-3.4971075472	-1.0044419538	 0.6640651159	-0.230151
N	-2.3422788761	-0.3634401008	 0.938116401	-0.253845
H	 0.9547752197	 2.0202333342	 0.4000352007	 0.141556
H	-0.6332983723	 2.1651931193	-0.3892085934	 0.124002
H	-0.5231099065	 1.8253479705	 1.3440856067	 0.101122
H	 0.4500179111	-0.0226572911	-0.9136343406	 0.101151
H	 0.394912965	-0.5334320974	 2.0894779531	 0.078986
H	 0.8188833854	-1.7168393471	 0.8360352822	 0.09889
H	 2.6914248309	-0.5913190817	 1.6614057984	 0.290389
H	-1.5311429706	-1.601327718	-1.9311487339	 0.100568
H	-4.0551228365	-2.1549293878	-0.9844434834	 0.109003
H	-2.2754398072	 0.1640349607	 1.7918001344	 0.268661
