21
gdb 118773	3.06682	1.05987	0.91665	2.9301	75.98	-0.2283	0.062	0.2903	1347.9064	0.179417	-461.344103	-461.333777	-461.332833	-461.378753	39.266	
C	-0.0789808978	 1.5077105007	 0.1568432896	-0.441395
C	 0.077791901	 0.0074579939	 0.074199268	 0.328567
O	-0.8558423311	-0.6246571516	-0.7700509163	-0.465806
C	 1.4594331411	-0.6249642282	 0.1577984589	-0.420592
C	 0.448107099	-0.7812219	 1.2940060565	 0.403472
O	 0.6593942625	-0.0137995131	 2.4459904447	-0.484889
C	-0.1737435651	-2.139987572	 1.5579305356	-0.263664
C	 0.7880420452	-3.1025077135	 2.2457042025	-0.086806
O	 1.1790564665	-2.5334632853	 3.502332033	-0.419258
H	 0.5938668412	 1.9295859585	 0.9045237515	 0.139013
H	 0.1396904893	 1.9721403674	-0.8128488253	 0.097555
H	-1.1066895781	 1.7635547955	 0.4330145217	 0.123884
H	-0.6375898244	-0.3801177176	-1.6762783319	 0.278722
H	 1.6501211125	-1.4795240598	-0.4842899655	 0.098754
H	 2.3079094066	 0.0255214049	 0.340209664	 0.10881
H	 1.0664079695	-0.6139799143	 3.0878418756	 0.285563
H	-1.0585284084	-2.0025594714	 2.1908350606	 0.113721
H	-0.5093187674	-2.5831615725	 0.6175122038	 0.120679
H	 0.3006624003	-4.0752282008	 2.4053635764	 0.093547
H	 1.6703484867	-3.2646601899	 1.6096246784	 0.096538
H	 1.9083649409	-3.047230381	 3.8604518482	 0.293584
