19
gdb 65385	3.37673	0.94522	0.90098	2.4153	79.85	-0.2416	-0.0289	0.2127	1373.107	0.157373	-423.009352	-423.000296	-422.999352	-423.04372	33.91	
O	 0.0194495405	 1.3877460707	 0.0477326157	-0.468818
C	-0.0054794953	 0.0026380189	 0.0165709928	 0.347422
C	-0.4792970251	-0.7269272111	 1.2573324386	-0.359808
C	-1.3678145359	-0.715955591	 0.047113293	-0.095585
C	-2.6075812928	 0.1138775823	-0.0079583277	 0.030302
C	-3.4996339575	 0.0617358582	-1.2231103236	-0.268909
C	-3.9628700638	-0.5483277516	 0.0761006587	-0.276635
C	 1.0405672774	-0.5937349084	-0.8306133717	 0.097048
O	 1.7979199308	 0.0894582071	-1.4860300644	-0.295754
H	 0.6785156445	 1.6368535099	-0.6199238225	 0.296876
H	 0.0172381708	-1.6472923913	 1.5471916908	 0.120564
H	-0.7433095901	-0.0691749105	 2.0784342527	 0.138807
H	-1.4196581107	-1.646892274	-0.513991915	 0.089197
H	-2.5092758914	 1.0827622785	 0.4690033632	 0.104304
H	-3.9613329469	 0.9836033277	-1.558145114	 0.11717
H	-3.221953871	-0.6117228854	-2.0276668443	 0.111107
H	-3.9951652388	-1.6307837191	 0.1445460856	 0.110983
H	-4.7435636377	-0.04613408	 0.636676315	 0.11521
H	 1.0800955229	-1.702377411	-0.850861513	 0.08652
