16
gdb 46476	2.89969	1.53492	1.11562	3.8672	70.48	-0.2178	-0.0895	0.1283	1063.9288	0.124354	-437.892182	-437.884287	-437.883343	-437.924935	29.672	
O	-0.0162990609	 0.0520953595	 0.2883119321	-0.27253
C	-0.0448947275	 1.2238639179	 0.0323302989	 0.308894
C	-1.2536405255	 2.1477176479	-0.1009752001	-0.304406
N	-0.7830024252	 3.3566669942	-0.8108882191	-0.37771
C	 0.6447794677	 3.469587819	-0.5412526136	 0.209168
C	 1.4790955547	 4.5238056786	-1.2142949729	-0.316895
C	 1.1772614303	 4.671140551	 0.2427273218	-0.268965
C	 1.2000135725	 2.1312804934	-0.2119057457	 0.256512
O	 2.3502672684	 1.7920445809	-0.0951548594	-0.305702
H	-2.0801456188	 1.6615386002	-0.6230651941	 0.142856
H	-1.6087406903	 2.4129957503	 0.9049346934	 0.146565
H	-0.914141221	 3.21595799	-1.808259862	 0.232829
H	 2.4800655675	 4.2235391441	-1.5050033922	 0.145097
H	 0.9608863241	 5.1752978923	-1.9094437148	 0.130122
H	 0.4273570734	 5.3953186492	 0.538368629	 0.134833
H	 1.9713867306	 4.4777219116	 0.9549830986	 0.13933
