19
gdb 63899	2.40142	1.70409	1.37781	1.91	75.19	-0.2394	-0.021	0.2185	1030.5939	0.157622	-423.042789	-423.034096	-423.033152	-423.075882	33.347	
C	-0.5003895685	 1.6039295203	 0.1936587132	-0.411227
C	-0.0332847748	 0.1584887978	 0.0087368785	 0.239712
C	-1.2180207841	-0.8113051213	-0.0559937321	-0.400255
O	 0.7330731577	 0.0347681839	-1.2042692995	-0.302414
C	 2.0245933172	-0.4503957408	-0.9390030862	 0.093214
C	 2.9509070433	 0.4681318256	-0.2198908971	-0.321745
C	 2.2214432001	-0.6481896341	 0.5436093591	-0.184099
C	 0.91049197	-0.2820170257	 1.1510973569	 0.376808
O	 0.5803852136	-0.3756454169	 2.3072731986	-0.342934
H	 0.3438720553	 2.2984718096	 0.1968582528	 0.119655
H	-1.1733527413	 1.8888755007	-0.620070871	 0.125192
H	-1.0317445024	 1.7005839633	 1.1442978488	 0.138333
H	-1.8815488505	-0.533764384	-0.8798782863	 0.122921
H	-0.870966423	-1.8349601062	-0.2230867693	 0.120299
H	-1.7756306737	-0.7821026035	 0.8838642736	 0.13623
H	 2.3831227548	-1.1514395791	-1.6843689425	 0.110142
H	 4.0187772038	 0.317654877	-0.3346291956	 0.128927
H	 2.6477883538	 1.4975002541	-0.0669445615	 0.133446
H	 2.8008362189	-1.4403724707	 0.9992365596	 0.117796
