17
gdb 30199	2.73608	1.63295	1.08572	2.8668	75.53	-0.1938	0.0578	0.2515	1094.909	0.137686	-418.01922	-418.01133	-418.010385	-418.051933	29.877	
C	-0.3838792689	 1.6214471571	-0.4428691801	-0.398803
C	-0.0097464964	 0.190159697	-0.1098021591	 0.05454
C	 0.7638840236	-0.649316908	-1.2051637082	-0.404616
C	 1.8902053048	-0.7338167715	-0.185662651	 0.288769
C	 3.054635122	-1.1160978281	 0.4157998072	-0.238896
N	 3.0805399209	-0.5790000241	 1.7029545313	-0.377518
C	 1.9560766198	 0.0815382131	 1.8593833102	 0.408416
O	 1.5600294599	 0.7528990912	 2.9562309192	-0.428867
N	 1.2077223773	 0.0309393331	 0.7342856532	-0.070532
H	 0.4669212143	 2.1554306019	-0.8762241926	 0.132385
H	-1.2081136897	 1.6348006766	-1.1633702631	 0.126792
H	-0.7076767464	 2.1581140594	 0.4540974825	 0.137576
H	-0.8594251059	-0.3503292753	 0.3178886295	 0.107158
H	 0.2855044693	-1.5939545826	-1.4753853799	 0.124979
H	 0.9816448745	-0.0866757819	-2.1174275776	 0.121767
H	 3.870862603	-1.7175601252	 0.050161364	 0.105715
H	 2.269025508	 0.6444259772	 3.6026235247	 0.311135
