18
gdb 91106	3.16922	1.74118	1.3904	0.8044	76.67	-0.223	-0.0144	0.2086	950.695	0.149518	-401.877772	-401.870723	-401.869778	-401.908829	28.902	
O	-0.2922603013	 1.3551235049	-0.2470631265	-0.426446
C	-0.0094095652	-0.0173913998	-0.1133022507	 0.069775
C	 0.313403873	-0.4710273375	 1.3741182909	-0.179962
N	-0.1158963282	-1.897582798	 1.523564641	-0.129151
C	-1.5628887873	-2.3593287745	 1.5516092609	-0.016845
C	-2.804847764	-1.4648766785	 1.4488880525	-0.27447
C	-2.3950206424	-0.4886606212	 0.361300518	-0.112425
C	-1.243104434	-0.8770436129	-0.2080690482	 0.07236
C	-0.8224034018	-2.241333849	 0.2821618636	-0.098092
H	 0.5314741639	 1.8426044417	-0.1534985206	 0.289307
H	 0.8008503752	-0.3264933391	-0.7901962784	 0.074783
H	 1.3831473021	-0.4338706769	 1.6098881728	 0.09825
H	-0.2190896487	 0.2129248927	 2.0430786997	 0.111261
H	-1.6449073719	-3.3023720316	 2.0836731998	 0.09437
H	-3.6836682921	-2.0933879373	 1.2455501045	 0.11467
H	-3.0325353417	-0.9048050223	 2.3654244672	 0.115847
H	-2.7409323084	 0.5389401523	 0.3549272599	 0.11257
H	-0.4602807973	-3.040635013	-0.3586350663	 0.084197
