16
gdb 34691	4.0554	1.53346	1.40574	1.8854	75.97	-0.2299	0.0473	0.2772	934.4533	0.125275	-363.511584	-363.505037	-363.504093	-363.542372	27.161	
C	 0.0520955361	-1.2029982255	 0.0406078404	-0.455721
C	 0.0316180793	-0.0018703925	 0.0234158882	 0.352484
C	-0.0203149005	 1.4547909336	 0.0174772514	-0.175313
C	-0.5898712893	 2.0622142908	 1.2983446883	-0.078747
C	 0.5417858714	 2.2751274592	 2.2728633977	-0.083787
C	-0.0070631794	 3.4421279718	 1.4724371029	-0.115835
C	 1.2651642117	 3.4049254115	 0.5767431889	-0.069699
C	 1.8030272694	 2.2610941905	 1.3638940884	-0.057771
N	 1.3304191642	 2.0589488025	-0.015887667	-0.110784
H	 0.0769558655	-2.264548991	 0.0475818208	 0.195762
H	-0.5691240713	 1.8038114377	-0.8651767201	 0.110365
H	-1.5859663633	 1.8301457702	 1.6521942818	 0.103115
H	 0.4974651099	 2.0759631086	 3.333185206	 0.095099
H	-0.5539440093	 4.3152664225	 1.7967956469	 0.095534
H	 1.7445197774	 4.2360111414	 0.0761595708	 0.097426
H	 2.8096325584	 1.9721810187	 1.6348625047	 0.097872
