23
gdb 70592	2.02377	1.7936	1.40792	1.1577	84.04	-0.2502	0.0686	0.3188	1091.3056	0.205457	-388.299826	-388.29059	-388.289646	-388.33261	37.388	
C	-0.6310942936	 1.4905478471	 0.1851896743	-0.441972
C	 0.0061088888	 0.1061370247	 0.0064499523	 0.233572
C	-1.0821214174	-0.9309125168	-0.3273235029	-0.412871
C	 1.1109487677	 0.0998733695	-1.0864754094	-0.259993
C	 2.114233395	-1.0079053462	-0.679143291	-0.225906
C	 2.0325031691	-1.0509859094	 0.8384354859	-0.076248
C	 2.1020087555	 0.2811022895	 1.5666993569	-0.371765
C	 0.7684342121	-0.356586855	 1.2609180381	 0.411809
O	 0.0254276043	-0.8777166625	 2.3261822723	-0.479968
H	 0.1187199526	 2.2428055911	 0.4518632238	 0.109008
H	-1.1277988833	 1.8212021192	-0.7335836875	 0.111772
H	-1.3906893247	 1.4757579797	 0.9761901901	 0.101304
H	-1.6294322205	-0.6322288705	-1.2277326433	 0.101425
H	-0.6501677223	-1.9208171009	-0.5051437645	 0.113117
H	-1.794497486	-1.0299401623	 0.4952856697	 0.117259
H	 0.6917948526	-0.0634916007	-2.0836675913	 0.094255
H	 1.6140537388	 1.0718952042	-1.1159176032	 0.09534
H	 1.8111135669	-1.9776316145	-1.090186949	 0.10189
H	 3.1236506335	-0.803598166	-1.0524495026	 0.09494
H	 2.3725090834	-1.9313246961	 1.3719701709	 0.088079
H	 2.4092064257	 0.2339605055	 2.6058832941	 0.108563
H	 2.4289616822	 1.1719156573	 1.0397306772	 0.10521
H	-0.3154955708	-0.1371363668	 2.8392800491	 0.281179
