16
gdb 124072	5.02229	0.98256	0.93389	3.2994	70.05	-0.2513	-0.008	0.2433	1237.7847	0.126677	-434.037882	-434.030383	-434.029438	-434.07174	26.802	
C	 0.0053936381	 1.3903571496	-0.3586047147	-0.081217
O	 1.3510659134	 1.6345718288	 0.0912037388	-0.271604
C	 1.4589374249	 0.3080143854	 0.6402124403	-0.08122
C	 0.068473797	-0.0975092068	 0.0807933425	-0.144904
C	-0.9621406419	-0.6175581794	 1.017067213	 0.305248
C	-1.4173512728	-0.1190765213	 2.2198718368	-0.174797
N	-2.3530137124	-1.0137667405	 2.6118175572	-0.14659
N	-2.4867668758	-2.0135977821	 1.7228511287	-0.112632
N	-1.6463730169	-1.7741861087	 0.7592286744	-0.250434
H	-0.7306693066	 1.9944696208	 0.1887903165	 0.095788
H	-0.1121064873	 1.5717342873	-1.4330029778	 0.110613
H	 2.3192487711	-0.2387090783	 0.2377277231	 0.110613
H	 1.5219836747	 0.3170968705	 1.7367187641	 0.095787
H	 0.1360690231	-0.7851437389	-0.7627180085	 0.106729
H	-1.1668762573	 0.752786132	 2.8003337167	 0.153779
H	-2.9230357013	-1.0124071784	 3.442857919	 0.284842
