17
gdb 49147	4.85724	0.98164	0.87839	3.4359	83.02	-0.2268	-0.0633	0.1635	1303.7767	0.134957	-421.82746	-421.819309	-421.818365	-421.860738	30.246	
O	-0.0457812991	-0.0076981148	 0.133668159	-0.272102
C	 0.0106955735	 1.1974796711	 0.0102035241	 0.076375
C	 1.2578985616	 1.9525802749	-0.0140421965	 0.18932
C	 1.3912315385	 3.2801335524	-0.1467460997	-0.277375
C	 2.8145502722	 3.6352201821	-0.1214475768	 0.454876
C	 3.428173909	 4.7279416849	-0.9683611885	-0.3208
C	 3.3623992667	 4.8842789472	 0.5324887526	-0.320799
O	 3.5386060522	 2.4343012617	 0.0353161326	-0.317087
C	 2.6274484821	 1.3314223268	 0.1107841133	-0.175179
H	-0.9100966024	 1.8127861149	-0.0942861196	 0.070464
H	 0.5929205591	 4.0037418892	-0.257192437	 0.129056
H	 4.3911428948	 4.4881696734	-1.4047752574	 0.136664
H	 2.7777420776	 5.332752875	-1.5908756066	 0.120153
H	 2.6660040873	 5.598315651	 0.9585965118	 0.12015
H	 4.2817827589	 4.7480943209	 1.0905609153	 0.136662
H	 2.7582894175	 0.8001213651	 1.0631633206	 0.124803
H	 2.8353075604	 0.6161676842	-0.6964399273	 0.124819
