17
gdb 62248	4.483	0.59774	0.56403	3.7641	72.82	-0.2766	0.0072	0.2838	1880.4584	0.132268	-458.940237	-458.930031	-458.929086	-458.977115	34.986	
O	-0.1176353996	 1.4003387733	-0.1150921209	-0.419349
C	-0.001932185	-0.0189245171	-0.0117870422	-0.058254
C	 0.4780299742	-0.6448171793	-1.3355910154	-0.201129
C	-0.4476739108	-0.276709957	-2.4902680663	-0.094268
O	 0.0059844651	-0.8997090915	-3.6976372738	-0.177393
C	 0.4377743044	-0.1086030754	-4.697362524	 0.168582
O	 0.8524573636	-0.5389129863	-5.7305597406	-0.273075
C	 0.8603979158	-0.4136264579	 1.1028575412	 0.283861
C	 1.6077258515	-0.7089102855	 1.9966689278	-0.423658
H	 0.7649397593	 1.7721573175	-0.0066525018	 0.289935
H	-1.024205594	-0.365484934	 0.1892612008	 0.124039
H	 1.4956198451	-0.2982747859	-1.5508700437	 0.11209
H	 0.524296338	-1.7333202958	-1.2291742391	 0.131078
H	-1.4644849261	-0.6400972098	-2.3071784908	 0.124803
H	-0.4931820598	 0.8109200565	-2.6114845749	 0.128651
H	 0.3596344021	 0.9695854212	-4.452739349	 0.077284
H	 2.2518871961	-0.9759788631	 2.7982020928	 0.206803
