17
gdb 89775	2.01472	1.71575	1.03337	5.542	74.27	-0.244	0.0076	0.2515	1158.6647	0.134724	-417.962395	-417.953802	-417.952858	-417.995874	31.323	
C	-0.0351325842	 1.5186873686	 0.0441006837	-0.33489
N	-0.0128442391	 0.0744734685	 0.1326108144	-0.069143
C	-1.2628323297	-0.6509833729	 0.4559040177	-0.255146
C	-0.4465182788	-1.5634675566	 1.3693321269	 0.421988
C	-0.7950498126	-2.503598312	 2.4264888657	-0.26292
O	-0.2812718508	-2.9388215855	 1.1535151884	-0.241472
C	 0.7106876333	-0.5445905345	 1.2620199998	-0.23223
C	 2.0528516191	-1.0421476387	 0.9681242965	 0.320947
N	 3.1197989728	-1.4315307727	 0.7573622669	-0.322752
H	 0.9784479706	 1.8923134136	-0.1295123127	 0.141087
H	-0.6541341654	 1.82146742	-0.8056558875	 0.134852
H	-0.4350108224	 2.0046761416	 0.9539649467	 0.097275
H	-2.0007160204	-0.0456143249	 1.006105866	 0.10033
H	-1.7464326855	-1.1287613629	-0.4013626442	 0.133004
H	-0.1218399864	-2.6445964754	 3.2705191329	 0.131753
H	-1.8404671939	-2.7439075252	 2.6129400674	 0.127862
H	 0.7608838034	 0.0962549892	 2.1587583912	 0.109455
