20
gdb 64060	2.63933	1.4926	1.21122	2.0875	82.43	-0.2416	0.0151	0.2566	1121.6159	0.170301	-403.157074	-403.148129	-403.147185	-403.190615	34.191	
C	-0.2319659206	 1.5326639326	 0.0966448184	-0.40915
C	-0.0455806291	 0.0166046672	-0.0324090124	 0.291128
C	-1.4072166697	-0.6898777089	-0.1599257689	-0.403497
C	 0.8178289724	-0.2958701429	-1.2291811457	-0.077974
C	 1.6412767433	-1.3228469149	-1.4071688955	-0.07743
C	 1.9795191291	-2.455759665	-0.480506704	-0.206464
N	 1.5369748885	-2.5126770891	 0.8914733977	-0.26176
C	 0.9651088825	-1.604029417	 1.5491111447	 0.119529
O	 0.5321693813	-0.3552019997	 1.2445952674	-0.262217
H	 0.737256546	 2.0283718689	 0.1967948067	 0.128718
H	-0.739597678	 1.9323260438	-0.7857807084	 0.116235
H	-0.832939127	 1.7615220871	 0.9800717173	 0.124033
H	-1.9001620072	-0.4047485987	-1.0938691427	 0.119206
H	-1.2764902927	-1.7750854813	-0.1646523378	 0.1309
H	-2.0553757258	-0.4131741377	 0.6772179627	 0.120711
H	 0.6897193979	 0.4037978213	-2.0523485917	 0.088475
H	 2.1501650079	-1.398786338	-2.3680646081	 0.091336
H	 1.6593557354	-3.3905305231	-0.9680748161	 0.1257
H	 3.0766429256	-2.5490843799	-0.4484286808	 0.129976
H	 0.79058498	-1.7755700448	 2.6131887172	 0.112542
