23
gdb 104890	2.25347	1.32413	1.10343	1.983	80.89	-0.2488	0.0803	0.3291	1253.9019	0.20628	-425.428989	-425.419363	-425.418419	-425.463632	36.561	
C	 0.6437421215	 0.3231406277	-1.1414128997	-0.259978
O	 0.1042359801	 0.3259799814	 0.1668241901	-0.304319
C	 0.6118304193	-0.6621723294	 1.0856531417	 0.38583
C	 2.077559247	-0.3291208798	 1.3980939024	-0.095937
O	 2.2125741463	 0.9905748153	 1.8860982103	-0.432486
C	-0.2769099887	-0.5598672409	 2.3601827025	-0.253807
C	-0.9723725322	-1.9271363973	 2.5190596062	-0.204497
C	-0.018541812	-2.9095065754	 1.8225605517	-0.206868
C	 0.4420900729	-2.1197092495	 0.5868942062	-0.271065
H	 0.5488551756	-0.6557483322	-1.62911226	 0.112072
H	 0.0668144959	 1.0531885532	-1.7150270437	 0.128778
H	 1.7008324714	 0.6215579864	-1.1661954135	 0.113815
H	 2.4521718938	-1.0082565875	 2.1719898007	 0.103848
H	 2.6996111978	-0.4888910038	 0.5021985121	 0.081886
H	 1.5931261748	 1.5220962188	 1.3700154929	 0.287062
H	 0.349270579	-0.3297307086	 3.226431995	 0.113242
H	-0.9842409178	 0.2639386917	 2.247549327	 0.109998
H	-1.1719684472	-2.1834901964	 3.5630921898	 0.094864
H	-1.9362400809	-1.9235921344	 1.9965923469	 0.100588
H	 0.83733038	-3.1323771809	 2.4719516322	 0.100469
H	-0.4854129125	-3.8644254535	 1.5646926324	 0.095944
H	-0.3515829919	-2.1356997231	-0.1688728426	 0.108441
H	 1.3475990778	-2.5249127717	 0.1243058493	 0.09212
