16
gdb 2089	4.89946	2.49823	1.77206	1.801	62.09	-0.238	0.0338	0.2718	732.4653	0.138387	-325.804486	-325.797758	-325.796814	-325.835036	24.813	
C	 0.0022279279	 1.4766688664	 0.0592203961	-0.448904
C	-0.0333952549	-0.0178389372	-0.0728916219	 0.397052
N	-0.0539569406	-0.5918037163	-1.2036370383	-0.305876
C	-0.0295106555	-2.049691181	-1.2607843408	-0.150161
C	 0.4690776686	-2.6976279587	 0.0340010212	-0.231821
C	-0.2300891083	-2.0188066252	 1.2026983373	-0.066632
O	-0.0351582227	-0.5999237506	 1.1627667152	-0.25953
H	 0.8789578615	 1.7837597467	 0.6385883232	 0.135603
H	 0.03708973	 1.9297168257	-0.93054844	 0.142445
H	-0.8811631835	 1.8325761012	 0.5992532113	 0.134273
H	-1.0407028056	-2.4074233476	-1.500942816	 0.1072
H	 0.6016062956	-2.3428940273	-2.1072413588	 0.108404
H	 0.2714803736	-3.7744778811	 0.0484779703	 0.102014
H	 1.5517845286	-2.5578994037	 0.1311469419	 0.113345
H	-1.3091508352	-2.2242555427	 1.1794945883	 0.108139
H	 0.1577684505	-2.3438549385	 2.171349961	 0.11445
