15
gdb 125822	3.29482	1.12571	0.85811	2.2045	70.68	-0.2527	-0.0187	0.234	1279.7313	0.111756	-453.930628	-453.922244	-453.9213	-453.964661	29.438	
C	-0.1077554901	 1.4638824892	 0.1682273984	-0.493752
C	-0.0186293703	-0.022974776	 0.0840519841	 0.306228
N	-0.1448958672	-0.6595894204	-1.0554111044	-0.189334
O	-0.0080447605	-2.0157678392	-0.7671192871	-0.165757
C	 0.2134915401	-2.168334508	 0.5484554981	-0.02243
C	 0.2093750596	-0.9481870122	 1.1469799214	 0.137091
O	 0.4138291976	-0.584406106	 2.4444071316	-0.211826
C	-0.1636683831	-1.346518172	 3.4176058823	 0.106474
N	 0.1717914989	-1.1673026523	 4.6150947175	-0.421521
H	 0.8240703983	 1.8867271998	 0.5563426315	 0.151539
H	-0.3032583093	 1.8818243618	-0.8205524006	 0.153796
H	-0.9094758182	 1.7670856735	 0.8488830295	 0.144924
H	 0.3628268167	-3.1755463464	 0.9022094752	 0.158164
H	-0.9028011336	-2.0508528219	 3.017178938	 0.105322
H	-0.3649367988	-1.77901796	 5.2264602244	 0.241083
