21
gdb 99679	2.60471	1.05734	0.79052	1.577	84.74	-0.2566	0.045	0.3016	1466.111	0.181402	-387.042326	-387.032558	-387.031614	-387.077372	36.314	
O	 0.1094280419	 1.4202421644	-0.0354349686	-0.422718
C	 0.0237853807	 0.0156402021	 0.0606281417	-0.060955
C	-1.431249188	-0.5026966457	-0.0227743889	-0.210542
C	-2.0319248168	-0.063892847	-1.2821930165	 0.307315
C	-2.4754398339	 0.3117237219	-2.3362264668	-0.466111
C	-1.5013307545	-2.0262450771	 0.1382275985	 0.057269
C	-1.1295817598	-2.6481349309	 1.5156264589	-0.238939
C	-2.2903600471	-3.6609288052	 1.3234066331	-0.217275
C	-2.8910720646	-2.7108821781	 0.2518998206	-0.231033
H	-0.3214808138	 1.672321668	-0.8613258267	 0.285011
H	 0.6241336149	-0.484443737	-0.7162343936	 0.090833
H	 0.4441475713	-0.2540423162	 1.0342599002	 0.113668
H	-1.9880364871	-0.0386331969	 0.8036854949	 0.105494
H	-2.8948030482	 0.6320936071	-3.2579616106	 0.19902
H	-0.9171452512	-2.4978398177	-0.6599921337	 0.078882
H	-0.1187590218	-3.0424231727	 1.6440778253	 0.099566
H	-1.3368186655	-1.9502140113	 2.3342263471	 0.10195
H	-1.9399336834	-4.5988058399	 0.8833197794	 0.104252
H	-2.9055977077	-3.8966564609	 2.1944651756	 0.099112
H	-3.6321107748	-2.0312290411	 0.6850628985	 0.102519
H	-3.3142239405	-3.1530766958	-0.6523213882	 0.102684
