17
gdb 36334	5.50867	0.74395	0.69191	3.3743	77.55	-0.3192	0.0107	0.3299	1545.3306	0.13673	-380.893287	-380.884615	-380.883671	-380.927645	31.044	
N	-0.553542281	-0.8950099597	-0.7446687688	-0.299404
C	-0.359616283	 0.212521632	-0.4784699686	 0.263359
C	-0.0814193169	 1.6072539338	-0.1391825691	-0.356002
C	 1.35654486	 1.8080104401	 0.3681745141	 0.005279
C	 2.4547488313	 1.6333792449	-0.7190663608	-0.241243
C	 2.5417058109	 3.1892833518	-0.8478637659	-0.131072
C	 1.7568121236	 3.3052958177	 0.4992818859	-0.257687
C	 3.8597110779	 3.7948806874	-0.9174092858	 0.265254
N	 4.9144518747	 4.2675216262	-0.9523027635	-0.319003
H	-0.2689731178	 2.2223111493	-1.0280671788	 0.151569
H	-0.7970517874	 1.9335758954	 0.6242986048	 0.158306
H	 1.501551339	 1.2078369753	 1.2681020108	 0.106004
H	 3.3742970943	 1.2098937834	-0.3126575926	 0.137596
H	 2.1841666186	 1.0851498897	-1.6234224369	 0.133567
H	 1.944948123	 3.5531774023	-1.6885854031	 0.127915
H	 0.9514236018	 4.042793767	 0.5266300213	 0.119386
H	 2.4256932209	 3.4817780335	 1.3429686671	 0.136175
