16
gdb 34309	3.36306	1.51527	1.34223	5.369	67.77	-0.2788	0.0057	0.2845	970.701	0.12644	-437.900141	-437.893172	-437.892227	-437.931498	27.318	
N	 0.0730634989	-1.0868751508	-0.034268082	-0.328082
C	 0.0326643977	 0.0659084069	-0.0253775811	 0.237958
C	-0.0465881982	 1.5255293281	 0.0489779889	 0.383412
C	-0.8351870204	 2.1179900766	 1.2419388007	-0.26269
C	-1.1325701423	 3.5381151329	 0.6718646227	-0.229513
C	-0.4490494841	 3.4471176834	-0.7097497792	 0.024854
C	 1.0776069187	 3.4042434471	-0.5244340553	-0.086827
O	 1.2634820696	 2.092561517	 0.0455215804	-0.306355
O	-0.6909293957	 2.0753026079	-1.0833958615	-0.271508
H	-1.7460686368	 1.54726431	 1.4315352562	 0.130494
H	-0.2217848581	 2.1215590399	 2.1433858038	 0.130825
H	-2.2051771188	 3.7030130898	 0.5564338854	 0.122382
H	-0.723936434	 4.3421175521	 1.2877403963	 0.115251
H	-0.8176606695	 4.1147847507	-1.4858747333	 0.103192
H	 1.6163471888	 3.4680983022	-1.4753243745	 0.122005
H	 1.4534088543	 4.1664989463	 0.1650669924	 0.114602
