12
gdb 9002	5.60771	1.06853	0.97169	1.1344	52.96	-0.274	-0.1001	0.1739	1115.7375	0.080014	-455.640355	-455.632116	-455.631172	-455.674752	26.506	
O	 0.7774448179	 0.0361930791	 0.1478010979	-0.221004
C	 0.9006819634	 1.0439259486	-0.4901690899	 0.151154
C	 0.7037308321	 2.4279325664	 0.1198593781	-0.160976
O	 1.0484112243	 3.4750379366	-0.796146683	-0.212807
C	 2.3580794829	 3.6254815865	-1.0189634329	 0.339562
O	 3.2354141853	 2.9543873893	-0.536590891	-0.333051
C	 2.6626582256	 4.7786436602	-1.9823224861	 0.091946
O	 1.8288493104	 5.4586381209	-2.5078843125	-0.204293
H	 1.1366192261	 1.0447343	-1.5771807448	 0.09936
H	-0.3551004874	 2.5759575304	 0.3460187228	 0.160211
H	 1.2894300497	 2.5027175954	 1.0396190015	 0.16542
H	 3.7531807398	 4.8996102167	-2.1338677402	 0.124478
