25
gdb 122414	5.07986	0.54206	0.52139	1.2408	90.54	-0.2611	0.0814	0.3425	2202.1562	0.228066	-389.485577	-389.474838	-389.473893	-389.522268	39.251	
C	-0.048086084	 1.602407534	 0.1295023537	-0.406417
C	 0.0599223365	 0.0883958113	 0.0386123792	 0.059743
C	 1.1214750574	-0.5417612437	-0.9068207956	-0.259833
C	 1.3807537687	-1.6359620792	 0.1655982306	 0.055677
C	 2.8061045229	-2.1191213638	 0.4006778105	-0.21672
C	 2.9247536182	-3.1035102172	 1.5691568354	-0.162336
C	 4.3516181241	-3.5782023514	 1.8074609947	-0.074199
O	 4.3397244188	-4.47752976	 2.9068996802	-0.422318
C	 0.7122151248	-0.6971542205	 1.2113021187	-0.23725
H	 0.9266881304	 2.0527137986	 0.3502381321	 0.108049
H	-0.4087203041	 2.0347192476	-0.8109568887	 0.111571
H	-0.741684632	 1.9065771408	 0.9218173259	 0.111976
H	-0.9246234827	-0.3399825637	-0.1829962672	 0.068506
H	 0.8027020637	-0.8604386031	-1.9030527801	 0.089914
H	 1.9917210041	 0.1168354655	-1.0150357415	 0.089974
H	 0.7291338668	-2.4982885797	-0.0223114756	 0.066314
H	 3.1841169062	-2.5903941153	-0.5179166072	 0.090507
H	 3.4523801713	-1.2487804863	 0.5847679926	 0.086412
H	 2.5553936301	-2.6406187858	 2.4923010279	 0.108385
H	 2.2930280144	-3.9820016647	 1.3875157787	 0.102257
H	 4.7375113031	-4.0671846729	 0.8974184311	 0.081469
H	 5.0028181988	-2.7113872232	 2.0093712026	 0.081558
H	 5.2401894109	-4.7786339819	 3.0583511688	 0.283837
H	 1.4634334311	-0.0843985654	 1.724422641	 0.090086
H	 0.0547051005	-1.1404188499	 1.9636466524	 0.092835
