19
gdb 33932	3.10546	1.40599	1.22375	0.9179	85.42	-0.2292	0.0488	0.278	1088.9002	0.160122	-348.703367	-348.695681	-348.694737	-348.735092	31.729	
C	 0.0277101725	-1.1898019002	-0.0084707483	-0.401763
C	 0.0302216879	 0.0136880764	 0.01166949	 0.177673
C	 0.0191389224	 1.4453403125	 0.0490398078	 0.175242
C	 0.3608072599	 2.2177981488	-1.219399833	-0.33355
C	 1.3084802263	 2.2718156205	-0.0572343228	-0.075792
C	 1.2294324101	 3.4199253741	 0.9521841681	-0.253929
C	-0.1243060874	 3.3098196061	 1.661757514	-0.028178
C	-1.3988649936	 3.5038628006	 0.878312418	-0.304435
C	-0.8633928717	 2.1115503082	 1.102491207	-0.090956
H	 0.0292098013	-2.2509446115	-0.0311400896	 0.183579
H	 0.6625339059	 1.6197975263	-2.0720205023	 0.122957
H	-0.2314646711	 3.086713109	-1.4796903026	 0.115838
H	 2.2586052324	 1.7619407371	-0.1701844084	 0.099223
H	 2.0308245676	 3.3014250406	 1.6886934938	 0.108513
H	 1.3782809559	 4.3980162007	 0.4790307502	 0.105622
H	-0.1491676532	 3.534231011	 2.7226389038	 0.086114
H	-2.2835453331	 3.7807724123	 1.4425614422	 0.109895
H	-1.3634742625	 3.9508671808	-0.1085311293	 0.112401
H	-1.4235901196	 1.4384938165	 1.7393425615	 0.091546
