20
gdb 57337	2.06491	1.47389	1.31022	4.9648	74.67	-0.2908	0.0294	0.3202	1124.103	0.166814	-440.306052	-440.295398	-440.294454	-440.340514	40.147	
C	-0.1153748711	 1.51787812	 0.0932002529	-0.439296
C	 0.0291249253	-0.0047692563	 0.0168453678	 0.321053
C	 0.7069405545	-0.5670408707	 1.2718251673	-0.439585
O	-1.2631499367	-0.6118367286	-0.1460624751	-0.477431
C	 0.7704814992	-0.4883323263	-1.2790173734	 0.222433
C	 2.259389871	-0.1314746913	-1.3253092361	-0.429453
O	 0.683856916	-1.8981556174	-1.3670730257	-0.456129
C	 0.0997695855	 0.1117494414	-2.4665212225	 0.280503
N	-0.3939368133	 0.5704512363	-3.4051726986	-0.35562
H	 0.8573994528	 2.0121277577	 0.1698396176	 0.124448
H	-0.6412552833	 1.9053607886	-0.7819026265	 0.157058
H	-0.6898905149	 1.7876242227	 0.986174953	 0.111284
H	 0.0626896807	-0.3948917038	 2.1414411914	 0.107921
H	 0.8773865214	-1.6403221633	 1.1686818474	 0.13974
H	 1.6608973724	-0.073678464	 1.4747371916	 0.126743
H	-1.7654836981	-0.4892242662	 0.6654128538	 0.288053
H	 2.7776276864	-0.6101411849	-0.4927919698	 0.135484
H	 2.6862369335	-0.5070234252	-2.2573326309	 0.150955
H	 2.414503068	 0.9482887729	-1.2825002724	 0.134549
H	-0.2389125595	-2.1154538413	-1.1714981019	 0.29729
