16
gdb 7537	5.04196	1.12835	1.05147	3.8062	61.47	-0.2395	-0.0181	0.2214	1106.9345	0.127165	-420.858369	-420.84969	-420.848745	-420.89219	31.19	
O	 0.0395353422	 1.3121989471	 0.2241840965	-0.429567
C	-0.007612204	-0.0814580852	 0.069956191	 0.008689
C	-0.6391482248	-0.924684865	 1.1596575691	-0.385285
C	-1.4003771222	-0.6174289993	-0.119353385	 0.419234
O	-2.4350747007	 0.3182968867	-0.053389174	-0.479006
C	-1.6883096245	-1.7146464214	-1.122907654	-0.335392
C	-2.8796033048	-2.5604604171	-0.7114034028	 0.161381
O	-2.8810006601	-3.7649308994	-0.6970687804	-0.243494
H	 0.5488431083	 1.5198445028	 1.0142203514	 0.299251
H	 0.811590865	-0.5013387276	-0.5112365961	 0.100005
H	-0.2495062424	-1.9236972061	 1.3248692006	 0.12625
H	-0.9797382164	-0.406432658	 2.0501182148	 0.118974
H	-2.009405973	 1.1804690304	 0.0618841776	 0.292946
H	-1.9261856367	-1.2435921241	-2.0868701718	 0.129488
H	-0.826122117	-2.37301088	-1.2587003241	 0.117154
H	-3.7778833489	-1.9765036736	-0.4173430228	 0.099372
