20
gdb 42137	2.02685	1.86788	1.1455	1.1748	76.16	-0.2509	0.0033	0.2542	1105.6592	0.172587	-440.263918	-440.255617	-440.254673	-440.296718	31.858	
C	-0.0303584763	 1.5058579908	 0.1309460601	-0.208326
C	 1.3417075491	 2.1558895316	-0.0859579165	-0.060796
O	 1.8308942341	 2.2394125436	-1.4169101815	-0.258268
C	 2.1680460156	 1.0701170089	-2.1347368108	-0.059401
C	 3.068615515	 0.0347213841	-1.4440523942	-0.11159
O	 2.3201906076	-1.0255620071	-0.8306838519	-0.234424
C	 2.0345378004	-0.9460776318	 0.5075805608	 0.093156
N	 0.9360467049	-0.5809478251	 1.0046525312	-0.200826
C	-0.0796204833	-0.038351369	 0.1094351175	-0.169835
H	-0.3720794786	 1.8415836346	 1.1175895187	 0.111844
H	-0.742032409	 1.8961922556	-0.6054587568	 0.10749
H	 1.274344657	 3.2029288141	 0.2257019129	 0.109565
H	 2.0801265886	 1.6803949099	 0.5746444867	 0.097226
H	 1.2752687445	 0.5388302078	-2.497663764	 0.105701
H	 2.7013048836	 1.4447160811	-3.0159790652	 0.111045
H	 3.6823239656	-0.451230247	-2.2087869594	 0.120875
H	 3.7425362148	 0.5131688872	-0.7222825829	 0.118217
H	 2.8396177302	-1.2989105259	 1.1568676767	 0.1115
H	-1.0594464046	-0.354778046	 0.480943192	 0.105459
H	 0.0283814206	-0.4149106974	-0.9127386934	 0.111389
