14
gdb 61732	5.45759	0.57638	0.54116	2.2503	78.3	-0.2713	-0.0615	0.2098	1879.9155	0.097956	-436.668939	-436.659398	-436.658453	-436.704763	32.099	
O	-0.1133335251	 1.4660775266	 0.0868597633	-0.398654
C	 0.0273575207	 0.0556458969	 0.0298379451	-0.104573
C	 0.7323313888	-0.3941379543	-1.264943391	-0.29781
C	 0.0146393673	 0.1582803143	-2.4849290185	 0.166728
O	 0.5697158095	 0.6721069324	-3.4172774022	-0.226162
C	 0.7031858682	-0.4791315647	 1.2145113522	 0.074431
C	 1.2935388951	-0.8962350154	 2.1826080627	 0.094736
C	 1.9540842918	-1.3709831552	 3.2795445209	 0.208173
N	 2.5177980864	-1.7758604155	 4.2108003448	-0.326432
H	 0.766551038	 1.8597837487	 0.1291335054	 0.298759
H	-1.002466687	-0.3246087209	 0.0207129218	 0.144045
H	 1.7762425847	-0.0676037828	-1.2828664669	 0.135633
H	 0.719953933	-1.4909753099	-1.3219049905	 0.145838
H	-1.0921860513	 0.0335733796	-2.4637883071	 0.085288
