21
gdb 115569	2.67911	1.0817	1.00779	3.7465	79.34	-0.2376	-0.0233	0.2143	1329.009	0.179574	-424.222392	-424.212268	-424.211324	-424.257914	36.247	
C	 0.0601049788	 1.6454776807	-0.0483791291	-0.387271
C	-0.1615556977	 0.1325126435	-0.1581229012	-0.206046
C	 0.7383959687	-0.5044266893	-1.2123636035	-0.079015
C	 2.2182124861	-0.715163107	-0.8177576087	-0.081178
O	 2.0636731309	-2.1479755082	-0.7891606413	-0.298248
C	 0.7421407386	-2.0722557935	-1.3449329317	 0.304089
C	-0.2677102817	-2.9084947105	-0.5724453872	-0.459921
C	 0.727667146	-2.4489668894	-2.8213292528	 0.124954
O	 1.7028699662	-2.6731603817	-3.4856151588	-0.246605
H	 1.0988221845	 1.8787172176	 0.2095076408	 0.122745
H	-0.1669957784	 2.14837958	-0.9946372877	 0.119853
H	-0.5789169156	 2.0819536605	 0.7247621182	 0.119299
H	 0.0241922913	-0.3351140751	 0.8161935579	 0.108002
H	-1.2122987833	-0.0664418789	-0.4032895554	 0.101662
H	 0.6013819139	 0.009832405	-2.1693959357	 0.081081
H	 2.952719039	-0.4014344929	-1.5680559745	 0.11439
H	 2.5085230015	-0.3192196652	 0.1629659136	 0.101761
H	-0.3299974447	-2.5870552005	 0.4685372335	 0.13175
H	-1.2648627785	-2.8414633693	-1.0198480996	 0.122325
H	 0.0429662956	-3.9583407356	-0.58518786	 0.139734
H	-0.2978995612	-2.4622880602	-3.2651976368	 0.066641
