17
gdb 84483	2.94536	1.49793	1.12402	3.3262	75.5	-0.2421	-0.0377	0.2043	1094.8071	0.135049	-421.834117	-421.825957	-421.825013	-421.867026	30.692	
C	-0.0826098804	 1.593563622	 0.0415657613	-0.393342
C	 0.0427490428	 0.0638618523	-0.0187969858	-0.166365
C	 0.8210228447	-0.481606631	-1.1946283276	-0.093355
C	 1.8365626084	-1.2748993549	-0.8389308393	-0.168796
C	 1.9148654163	-1.4098124439	 0.6319527607	 0.316108
C	 2.3943857725	-2.5756662326	 1.4002647981	-0.234984
O	 3.1806012253	-1.397872956	 1.3098233211	-0.264205
C	 0.8161603254	-0.5101265341	 1.1818083882	 0.334786
O	 0.609913738	-0.2833142684	 2.3445799875	-0.314327
H	 0.9017081701	 2.0689124909	-0.0072560701	 0.128436
H	-0.684482213	 1.9686997616	-0.7914442197	 0.118477
H	-0.5599946753	 1.8899643273	 0.9791058797	 0.142804
H	-0.969547983	-0.3658391115	 0.0097213168	 0.115094
H	 0.5586367826	-0.2351295202	-2.2176529564	 0.109414
H	 2.5293228584	-1.7686518076	-1.5090312066	 0.115521
H	 1.9507918972	-2.7668458395	 2.3763838124	 0.135074
H	 2.77293847	-3.4439059944	 0.8615964298	 0.119659
