20
gdb 8173	2.83692	2.36903	1.63917	0.3836	80.1	-0.2104	0.0262	0.2366	885.5336	0.177419	-311.85156	-311.843903	-311.842959	-311.882829	30.665	
C	 0.0213983353	 1.4559657874	 0.038933076	-0.518441
C	 0.0064929806	-0.0329469845	-0.0055797378	 0.315928
C	-0.0126692473	-0.8870770821	-1.0341609798	-0.199238
C	-0.0189003458	-2.2655908545	-0.3619038075	-0.067025
C	 1.0609788924	-2.0391131292	 0.7480537541	-0.238408
C	 0.0106935206	-0.9728872642	 1.2306940473	 0.253838
C	 0.0313509639	-0.3762685053	 2.6201026438	-0.509287
C	-1.0701512399	-2.0184397944	 0.7709054978	-0.238401
H	 0.9096580211	 1.8380687632	 0.5588332589	 0.124297
H	 0.0137417044	 1.880137459	-0.9693167065	 0.123127
H	-0.8468908154	 1.8550577895	 0.5793785422	 0.124282
H	-0.0220627284	-0.6851638046	-2.0966714298	 0.089502
H	-0.034265595	-3.1563466581	-0.9891043961	 0.055411
H	 1.164023383	-2.8823855482	 1.4405075035	 0.084198
H	 2.0412125269	-1.6736092839	 0.4308172448	 0.085849
H	 0.9231483788	 0.2410052092	 2.7787001233	 0.115379
H	-0.8452887541	 0.257249013	 2.7979910027	 0.115384
H	 0.0324684201	-1.1606807947	 3.3839660363	 0.113558
H	-2.0496859296	-1.6339204725	 0.4746847615	 0.085848
H	-1.1746628714	-2.8596912954	 1.4655938153	 0.084199
