22
gdb 91810	2.56204	1.42926	1.24434	2.1675	81.48	-0.2223	0.0616	0.2838	1152.6946	0.194175	-404.335037	-404.32587	-404.324926	-404.36832	35.926	
C	-0.0834001364	 1.53434372	-0.0469813103	-0.439289
C	 0.0987088519	 0.0193732131	 0.0020545914	 0.031146
C	 0.8872428893	-0.5867491184	-1.1768481617	-0.182408
N	 1.3483012424	-1.9168314102	-0.719041238	-0.140602
C	 2.6288396625	-1.8751303852	 0.0045644441	-0.277584
C	 1.3585429341	-1.8871381206	 0.7691793557	 0.346101
C	 0.881469013	-3.1206295963	 1.4954537018	-0.486962
C	 0.8474152883	-0.5240851976	 1.2472157471	 0.012576
O	 1.946285757	 0.2903509173	 1.6484341426	-0.431057
H	 0.8850038639	 2.0449176684	-0.0475185103	 0.122432
H	-0.6168986017	 1.8374582283	-0.9533322618	 0.122583
H	-0.6649790992	 1.8988856323	 0.8083257876	 0.109203
H	-0.8899212818	-0.4588966069	 0.0112436769	 0.07923
H	 0.2607728704	-0.7090258721	-2.065668794	 0.102154
H	 1.7328769657	 0.0552161317	-1.4566140886	 0.099658
H	 3.2205319934	-2.7855073347	-0.0594256554	 0.103581
H	 3.2020612912	-0.9528900863	-0.0117606044	 0.125071
H	 1.2080574353	-4.0223069203	 0.9711731683	 0.126411
H	 1.2791490995	-3.1504707381	 2.5162220282	 0.119641
H	-0.2128139309	-3.1463426719	 1.5588585454	 0.11335
H	 0.157361833	-0.6543432081	 2.0927494764	 0.060787
H	 1.5915883789	 1.1217180556	 1.9794792089	 0.283978
