15
gdb 55676	3.04704	1.02967	0.8779	8.6145	64.7	-0.2492	-0.0326	0.2167	1294.4439	0.110191	-491.145381	-491.135666	-491.134722	-491.18153	32.563	
N	-0.0410328645	 1.3102257714	-0.0576614655	-0.519818
C	 0.0538050567	-0.0149085488	 0.2312727913	 0.415742
O	 1.0565260135	-0.5417553775	 0.6622334109	-0.331487
C	-1.2509450791	-0.8076870477	 0.0168864139	-0.338598
N	-1.0216175498	-2.2391783861	-0.0320273396	-0.065346
C	-0.6834475803	-2.8874705658	 1.1732471208	 0.18322
O	-0.4087817099	-4.0454614199	 1.2954205718	-0.263479
C	-1.0397083704	-2.8784407061	-1.2792323649	 0.174241
O	-0.8496195309	-4.0413586929	-1.4898919735	-0.259022
H	 0.7658884917	 1.893440108	 0.094439645	 0.274469
H	-0.8666436582	 1.7245772587	-0.4534803576	 0.26643
H	-1.9361539549	-0.5642473708	 0.8374822057	 0.155688
H	-1.7468512741	-0.4960850257	-0.9066922914	 0.136461
H	-0.723837131	-2.1749312056	 2.0176003005	 0.092857
H	-1.2746574987	-2.1486323112	-2.0821120575	 0.078644
