19
gdb 73446	2.257	1.88491	1.53939	0.7923	74.01	-0.2147	0.0689	0.2836	975.8805	0.159363	-422.993979	-422.985963	-422.985019	-423.025907	31.875	
C	-0.0794997313	 1.5446325228	-0.026950608	-0.521558
C	-0.0204260356	 0.0509487538	 0.0312508169	 0.22845
C	-0.1746606317	-1.0439714793	-0.986401179	-0.022652
O	 0.9685647158	-1.7786998244	-0.5526595269	-0.314665
C	 1.0679472788	-0.8850609573	 0.6115141123	 0.03795
C	 0.4468995082	-1.6010182428	 1.808125113	-0.212432
C	-1.0140958468	-1.856726167	 1.3422577071	-0.285984
C	-1.1859335729	-0.9153504139	 0.1473907658	 0.30654
O	-2.4420702894	-0.4010104615	-0.168895962	-0.475778
H	 0.7655797738	 1.9642254552	-0.5834348482	 0.120347
H	-1.0049709323	 1.8616419022	-0.5160304756	 0.139781
H	-0.0712398683	 1.9829321626	 0.978225158	 0.118984
H	-0.4271567197	-1.0370936566	-2.0420994589	 0.098591
H	 2.0850869219	-0.5077009246	 0.7373679412	 0.079374
H	 0.9863723675	-2.5199124429	 2.0526387927	 0.108044
H	 0.4754189963	-0.9459370189	 2.6868929304	 0.09969
H	-1.1684859397	-2.903993389	 1.0632730989	 0.103119
H	-1.7473222719	-1.6043825198	 2.1133201696	 0.105434
H	-2.9361545225	-1.0798447887	-0.6412971474	 0.286764
