20
gdb 73127	2.38154	1.81664	1.55069	3.121	77.4	-0.2329	0.0715	0.3044	984.5249	0.172876	-403.117898	-403.110297	-403.109352	-403.14957	30.754	
C	 0.2100919083	 1.5080529609	-0.0333940967	-0.491024
C	-0.0522473275	 0.0105473835	-0.0036063476	 0.284762
C	-1.4043755086	-0.4756675904	 0.5746053351	-0.103542
O	-0.7438044453	-1.3383477889	 1.523652948	-0.292666
C	 0.5569307701	-0.8394064157	 1.1548358399	 0.092354
C	 1.5166230867	-1.8901116029	 0.5654711124	-0.238976
C	 1.3290211593	-1.8124007718	-0.9420518776	-0.034545
N	-0.0479196922	-2.0984690027	-1.3841910345	-0.329005
C	 0.4016070847	-0.6948087878	-1.2780817851	-0.113503
H	 1.2570588554	 1.7230198399	-0.2767988884	 0.117473
H	-0.4120733602	 2.0040150031	-0.7876977126	 0.118016
H	-0.0097871872	 1.9680953096	 0.9349249461	 0.120901
H	-1.9863587491	 0.3084789825	 1.077474561	 0.084223
H	-2.0441167475	-1.0397553869	-0.1099346235	 0.111202
H	 1.0093437803	-0.2822781414	 1.9860183574	 0.065815
H	 2.5531874291	-1.6446647737	 0.8229348822	 0.094956
H	 1.2905781166	-2.8817203194	 0.9689084403	 0.122427
H	 2.1505845974	-2.0861035819	-1.5974928676	 0.083762
H	-0.0384506803	-2.3814809301	-2.3609636315	 0.229913
H	 0.5137766198	-0.112974976	-2.1886829173	 0.077455
