21
gdb 116745	5.39799	0.60393	0.55052	1.7239	87.31	-0.2432	-0.0072	0.236	2062.5763	0.180799	-420.456324	-420.445543	-420.444599	-420.493664	37.53	
C	 0.3387989489	 1.2077923018	-0.0855330985	-0.395955
C	 0.4134941654	-0.1382425976	-0.81110778	-0.108926
N	-0.747162061	-1.0155354116	-0.7802289178	-0.263639
C	-1.7937890563	-0.6639203798	-0.1626832529	 0.116959
N	-2.8998270902	-1.5056027972	-0.1361535914	-0.351423
C	-4.0839957085	-1.2051312341	 0.5117428559	 0.430657
O	-4.246951328	-0.1649359292	 1.1161383043	-0.351486
C	-5.1482714755	-2.2905134528	 0.3946865585	-0.313971
C	-6.4398239569	-1.9249204611	 1.1215916947	-0.369771
H	 1.2865484051	 1.741114236	-0.2053752806	 0.114403
H	-0.454634241	 1.8456986863	-0.4891219237	 0.124776
H	 0.1609622282	 1.083675125	 0.9879230344	 0.124772
H	 0.6545801599	 0.0315076789	-1.8693771793	 0.111899
H	 1.2595935569	-0.717732725	-0.4171694587	 0.111899
H	-1.9654658233	 0.2620403831	 0.3865673947	 0.133624
H	-2.7993186897	-2.3810276868	-0.6297399659	 0.254858
H	-5.336655212	-2.4732210562	-0.6716294634	 0.125192
H	-4.7289707319	-3.2266056303	 0.7868749815	 0.125157
H	-7.178194103	-2.7244119241	 1.0160507683	 0.110127
H	-6.254058512	-1.7600504408	 2.18547891	 0.13541
H	-6.8647866051	-1.0024407942	 0.7191290099	 0.13544
