18
gdb 115466	2.86401	1.07532	0.82014	3.8024	75.63	-0.2607	-0.0753	0.1854	1395.8332	0.146815	-439.108761	-439.099709	-439.098764	-439.143608	31.746	
C	 0.0699086508	 1.5310448129	-0.0154819262	-0.383616
C	-0.0066684239	 0.004063342	 0.0287480636	-0.179856
C	-1.4436336018	-0.5299901255	-0.0085711267	 0.018974
C	-1.5420849464	-2.0823071063	-0.0046273973	-0.136492
O	-2.3983913039	-2.3829761949	 1.122377116	-0.256714
C	-2.6646845139	-1.1825292461	 1.7032830771	 0.311122
C	-3.5075649726	-1.2829013448	 2.9398871011	 0.107434
O	-3.8498912597	-0.3360596319	 3.5943371812	-0.219156
N	-2.2079143306	-0.1184151853	 1.1847604355	-0.284911
H	 1.1081318546	 1.8722865006	 0.0329200017	 0.112999
H	-0.366824889	 1.920742896	-0.9417310835	 0.113834
H	-0.4780697323	 1.9687101831	 0.8224008615	 0.149052
H	 0.5385447123	-0.4273674711	-0.8210320291	 0.098363
H	 0.4793577556	-0.3735908436	 0.9372975901	 0.103744
H	-1.9487033143	-0.1071476851	-0.8868430907	 0.096056
H	-2.0012112002	-2.5005159408	-0.9033010683	 0.125576
H	-0.5754950107	-2.5694618405	 0.1625811781	 0.120077
H	-3.7876376138	-2.3251859788	 3.1956223257	 0.103513
