19
gdb 121577	4.66017	0.57993	0.52244	2.3979	84.82	-0.2618	-0.0278	0.2341	2143.8159	0.155934	-423.041387	-423.030352	-423.029408	-423.080397	36.364	
C	-0.0721557041	 1.4187709407	 0.1152032644	-0.384355
C	 0.023732278	-0.1032604952	-0.022042855	-0.191652
C	 0.741766871	-0.5101853357	-1.2982941059	-0.044244
O	 0.7822596261	-1.950675629	-1.3383848201	-0.233994
C	 1.3904224715	-2.4836866543	-2.4151243349	 0.257291
O	 1.8819793407	-1.8381843282	-3.309656761	-0.361041
C	 1.3759943061	-3.9253298879	-2.3568979636	-0.075967
C	 1.3979751537	-5.12969944	-2.3690651573	 0.231493
C	 1.4211112662	-6.5819222769	-2.3785499813	-0.5087
H	 0.9207493533	 1.8807632807	 0.1400060834	 0.120938
H	-0.6226175308	 1.8612678464	-0.7221145948	 0.120937
H	-0.590691886	 1.6956890939	 1.0372230671	 0.120366
H	 0.5566720067	-0.5292108874	 0.8355723005	 0.110825
H	-0.9775926808	-0.5485817688	-0.0214677879	 0.110827
H	 0.2255215483	-0.1424404248	-2.1917412043	 0.121346
H	 1.7659972248	-0.1230757459	-1.3312599141	 0.121349
H	 1.9491193606	-6.9659872119	-3.2573392637	 0.161384
H	 1.9218651499	-6.9692495364	-1.4847172201	 0.161508
H	 0.4033628745	-6.9867187093	-2.3901450214	 0.16169
