22
gdb 110583	2.95678	1.32104	1.07337	1.8294	86.78	-0.2236	0.0917	0.3153	1236.9342	0.193756	-367.127773	-367.118997	-367.118053	-367.161015	34.153	
C	-0.2021256676	 1.5494762947	 0.140889516	-0.375234
C	 0.1977735974	 0.0921162526	-0.1193027913	-0.216801
C	 0.8425021855	-0.5530976642	 1.0954809827	 0.020542
N	-0.0710250162	-0.7942322032	 2.3007700834	-0.174
C	-0.5365461254	-2.1432789208	 1.6844059732	-0.049463
C	-0.2345890904	-2.8889808433	 2.9868852476	-0.269199
C	 0.9085456446	-1.8911616699	 2.7915786579	-0.035643
C	 0.9657455472	-2.0747099936	 1.2377061621	 0.303713
C	 1.7619501156	-3.0671528406	 0.4293423807	-0.530245
H	 0.6735899248	 2.1601559189	 0.3871172617	 0.111914
H	-0.6825629669	 1.9932115742	-0.7363734999	 0.10737
H	-0.8973420363	 1.6127985282	 0.982896117	 0.137802
H	-0.6836221799	-0.4839666985	-0.4265309569	 0.09355
H	 0.9041776701	 0.0422388101	-0.958704672	 0.094615
H	 1.7364348905	 0.0138019425	 1.3957468877	 0.058003
H	-1.426861495	-2.1937727507	 1.056054116	 0.079139
H	-0.9104498588	-2.6878465936	 3.8221736642	 0.106698
H	 0.0088162179	-3.9515725248	 2.9098537139	 0.09641
H	 1.7344203572	-1.626580554	 3.4558863204	 0.075895
H	 1.6290771376	-4.0871981909	 0.806605917	 0.120608
H	 1.453809528	-3.057360586	-0.6220188967	 0.123035
H	 2.83188491	-2.8332702571	 0.4655369751	 0.121291
