12
gdb 132480	3.23571	1.365	0.96001	2.7071	61.97	-0.2297	-0.0414	0.1883	1062.6427	0.078051	-518.088642	-518.08177	-518.080825	-518.120169	26.023	
F	 0.1003683448	 0.0727661329	 0.0023596934	-0.056012
C	-0.0548319291	 1.3844614467	 0.0113166035	 0.417303
N	-1.2171999384	 1.9012311476	 0.0297820091	-0.353755
C	-1.2401390294	 3.2871786016	 0.0374292161	-0.122994
C	-0.1259513989	 4.0478881302	 0.0263941229	 0.218866
F	-0.190396767	 5.3712465404	 0.0342629857	-0.04832
C	 1.2101917096	 3.4664956287	 0.0052902691	 0.292175
N	 2.2793239143	 4.1598712241	-0.0054947641	-0.535543
N	 1.1270204785	 2.053341675	-0.0010752083	-0.433996
H	-2.2183474211	 3.7537663367	 0.053119012	 0.139443
H	 3.1188620463	 3.5804528876	-0.019907367	 0.210886
H	 1.9838838002	 1.5175565284	-0.0154619624	 0.271948
