16
gdb 26868	3.04427	1.47343	0.99978	4.7954	82.14	-0.1961	-0.0474	0.1486	1140.6554	0.12434	-434.098771	-434.090307	-434.089363	-434.131892	31.705	
C	 0.0356830014	 1.5431480574	-0.0164180987	-0.506461
C	 0.0083363576	 0.0390078051	-0.0096228794	 0.192639
C	-1.1581270937	-0.6668883333	-0.0436227547	 0.364967
N	-2.4232813755	-0.1452148193	-0.1320722254	-0.564531
O	-1.1768138574	-2.0181749555	-0.0429741378	-0.252996
C	 0.0168203378	-2.7503131411	-0.0257854002	 0.347891
N	 0.0041698886	-4.0186069366	-0.0387518114	-0.531779
C	 1.2157526329	-1.9303399852	 0.0136026531	-0.064384
N	 1.2057938696	-0.6386230476	 0.0221116987	-0.263988
H	 1.0753330991	 1.8719176821	 0.029298813	 0.150042
H	-0.4147256492	 1.9667765741	-0.9231198727	 0.127308
H	-0.4890301823	 1.979617595	 0.8450656201	 0.114544
H	-2.5305317371	 0.8076892416	 0.1784952923	 0.269607
H	-3.1642067258	-0.7660018298	 0.1588110003	 0.266144
H	-0.949112532	-4.3803781045	-0.0671403559	 0.220258
H	 2.1617175359	-2.4620429923	 0.0388987887	 0.13074
