25
gdb 104851	1.88027	1.38012	1.1889	1.0782	88.43	-0.2392	0.0784	0.3176	1292.7753	0.227199	-389.482679	-389.472026	-389.471082	-389.517713	40.067	
C	-0.1518607765	 1.3816024015	-0.6334554721	-0.386838
C	-0.088519027	-0.0719356421	-0.1532913874	-0.238781
C	-1.4646465943	-0.657458227	 0.1932771839	 0.420103
C	-2.3343126342	-0.9761722026	-1.0500076191	-0.274636
C	-1.922941863	-2.4654232939	-0.9308157	-0.244822
C	-1.461925955	-2.1960273205	 0.5280046113	-0.001898
C	-0.2210960175	-2.9076917023	 1.0505865906	-0.424066
O	-2.1815067429	 0.168019731	 1.1002717807	-0.290579
C	-1.6501346458	 0.2544480338	 2.4041404829	-0.25447
H	 0.8472547879	 1.755989413	-0.8761888861	 0.106415
H	-0.771302314	 1.4784874667	-1.5308318488	 0.118281
H	-0.5852392041	 2.0301374115	 0.1321288978	 0.127759
H	 0.3692125428	-0.6985004117	-0.9280937895	 0.097517
H	 0.5759962207	-0.1456192113	 0.716122206	 0.095201
H	-3.3883367477	-0.8152173646	-0.8137902578	 0.109772
H	-2.0936351469	-0.4539985734	-1.9789142639	 0.093882
H	-2.7028185496	-3.215815895	-1.0776643839	 0.096661
H	-1.0797127004	-2.7156752472	-1.5823415781	 0.097307
H	-2.3056844706	-2.3721810942	 1.2048897254	 0.076961
H	 0.6411359658	-2.75469087	 0.3934292722	 0.113945
H	 0.0590136346	-2.5641285331	 2.052365644	 0.113302
H	-0.3974306426	-3.9877640969	 1.1111102922	 0.113924
H	-1.5576319643	-0.733236874	 2.8788461267	 0.105957
H	-0.6661626897	 0.7441380509	 2.432239633	 0.10497
H	-2.3496444956	 0.8553152913	 2.99117946	 0.124132
