19
gdb 35977	3.20152	1.15751	0.92264	4.9333	76.67	-0.2322	0.0193	0.2515	1264.2884	0.1613	-419.203634	-419.195086	-419.194142	-419.23714	32.023	
N	 0.3298243629	-1.2213717512	 0.593189878	-0.314535
C	 0.2055360053	-0.116921651	 0.2793694319	 0.281298
C	-0.0209090088	 1.289832922	-0.0894889538	-0.038398
C	-1.0062118164	 1.9528968997	 0.9172816428	-0.17655
N	-1.4630159442	 3.2695867104	 0.5293928558	-0.283425
C	-0.5886479605	 4.4135478929	 0.7780207193	-0.166393
C	 0.9216849461	 4.2476452636	 0.465376521	-0.210399
C	 1.2498744311	 3.2477524137	-0.6437530594	-0.069558
O	 1.2454933308	 1.900723136	-0.1771758417	-0.249363
H	-0.5129105288	 1.296083079	-1.0795499311	 0.105197
H	-1.8682689655	 1.2813809074	 1.0171093821	 0.123677
H	-0.5236068286	 2.0072103049	 1.8986267606	 0.131872
H	-1.810137016	 3.2682146056	-0.4210969749	 0.219212
H	-0.9954840309	 5.2407765773	 0.1873788521	 0.108515
H	-0.6934650859	 4.7138215969	 1.8285099454	 0.113039
H	 1.3397036161	 5.2275134348	 0.203429003	 0.102163
H	 1.4614224535	 3.9119519571	 1.3576480991	 0.118374
H	 0.5716280089	 3.3558012031	-1.50524247	 0.08584
H	 2.2697294407	 3.4127373879	-1.0026113103	 0.119434
