20
gdb 78961	2.40705	2.15014	1.55322	1.666	80.73	-0.2127	0.0835	0.2963	952.8368	0.171496	-365.927616	-365.920084	-365.91914	-365.958986	30.949	
C	-0.079297251	 1.6112563698	-0.0257807048	-0.420872
C	 0.0379018627	 0.1027364295	 0.0432919004	 0.022999
N	 1.0493056009	-0.565074749	-0.866364479	-0.174267
C	 2.3809396391	-0.1190157532	-0.3432831348	-0.026392
C	 2.6754622186	-1.3832453879	 0.4061295133	-0.122973
C	 2.206571354	-0.1570795956	 1.1749164763	-0.131785
C	 0.7235970468	-0.6215354227	 1.229933266	 0.30833
C	 0.073762971	-0.9092027328	 2.5581084727	-0.520727
C	 1.1806886127	-1.693663825	 0.1757882813	-0.059157
H	 0.8744421301	 2.0957534556	 0.2045564094	 0.119323
H	-0.3890751683	 1.927316478	-1.0274482795	 0.125468
H	-0.8258155347	 1.9756779001	 0.6880797938	 0.115009
H	-0.9304300787	-0.3699676456	-0.1675184775	 0.071755
H	 3.0352491279	 0.5569957232	-0.8777206286	 0.089379
H	 3.5683127055	-1.9886998494	 0.4755190379	 0.093354
H	 2.7543538652	 0.4713106475	 1.8645332249	 0.083725
H	-0.0636865822	 0.0102981003	 3.1396457964	 0.118847
H	-0.9111921383	-1.3709906162	 2.4272035295	 0.115513
H	 0.6868117488	-1.5892222843	 3.1602745628	 0.120887
H	 0.69608939	-2.6482666421	-0.0233159905	 0.071584
