23
gdb 114116	3.84501	0.86217	0.79118	1.1118	86.39	-0.2422	0.0791	0.3213	1552.001	0.20522	-388.262607	-388.252797	-388.251853	-388.297397	36.955	
C	-0.2742901721	 1.4822722446	 0.0741990333	-0.371641
C	 0.0942746792	-0.0080015146	 0.082443983	-0.296555
C	 0.781766504	-0.4479106973	-1.1812526443	 0.401237
C	 0.0400071836	-0.8559115507	-2.4233790409	-0.329059
C	 0.9673006026	-1.8524896674	-1.7704603125	-0.157378
C	 2.4359166553	-1.5495873403	-2.0933882766	 0.04382
C	 2.9265509277	-1.7530314808	-3.5144083191	-0.095449
O	 4.2727254905	-1.2971840577	-3.5735340944	-0.422911
C	 2.2320827041	-0.0919244872	-1.5610125922	-0.306875
H	 0.615932992	 2.1079424337	-0.0509081021	 0.118777
H	-0.958853721	 1.7121875449	-0.748884076	 0.116666
H	-0.7590492752	 1.7760540305	 1.0104933153	 0.108569
H	 0.7436485997	-0.2169705941	 0.9436605271	 0.093277
H	-0.8120736861	-0.6095226386	 0.2289346629	 0.092663
H	-1.0164240734	-1.0663520264	-2.2827268021	 0.105036
H	 0.2721052589	-0.4128245033	-3.389100979	 0.099895
H	 0.5944045603	-2.7995652302	-1.3955573482	 0.078085
H	 3.1032471357	-2.0991708472	-1.4227285647	 0.079892
H	 2.8534711672	-2.8212734484	-3.7790026524	 0.081588
H	 2.2909822072	-1.1982231023	-4.2217520323	 0.080969
H	 4.5762298423	-1.3724235779	-4.4826986865	 0.285094
H	 2.3544789007	 0.7116769621	-2.2945928484	 0.093723
H	 2.8658652968	 0.1291392086	-0.6988652796	 0.100576
