17
gdb 24622	4.91879	1.03238	0.97553	3.1679	73.32	-0.2283	0.0203	0.2486	1214.4855	0.138589	-418.009806	-418.002278	-418.001334	-418.043376	27.405	
C	-0.0021068805	 1.4787607593	-0.1845142322	-0.088232
O	 1.3948478415	 1.5786571425	 0.1520434019	-0.267177
C	 1.4616908146	 0.1900165225	 0.5288031557	-0.088216
C	 0.0166844297	-0.0547517493	 0.0290928979	-0.02117
N	-0.9410187583	-0.6414074116	 0.934485727	 0.011499
C	-1.7613835301	-1.7209357247	 0.6689685105	-0.130027
C	-2.4936229315	-1.9226981441	 1.8070095779	-0.091973
N	-2.152240797	-1.0013091483	 2.76978493	-0.273081
C	-1.2251952306	-0.2537991075	 2.2171814011	-0.001229
H	-0.6447236338	 2.0189099952	 0.5217103562	 0.116944
H	-0.2105425013	 1.8262368716	-1.2023159212	 0.11546
H	 2.2572844113	-0.3464499778	 0.0002783557	 0.115457
H	 1.5882029595	 0.0529756211	 1.6098593842	 0.116945
H	-0.0245715057	-0.6175435705	-0.9030756018	 0.108905
H	-1.7368769544	-2.2216130566	-0.2850951493	 0.128112
H	-3.2449881073	-2.675837338	 1.9890023189	 0.111407
H	-0.7238105761	 0.5777611563	 2.6896157174	 0.136378
