22
gdb 69504	2.40582	1.60472	1.33749	1.3778	86.52	-0.2197	0.0861	0.3058	1112.5612	0.193124	-367.170439	-367.161113	-367.160169	-367.203557	36.413	
C	-0.0258885772	 1.5215805585	 0.0622428264	-0.49531
C	-0.0231217579	 0.0202142414	 0.020996233	 0.33432
C	 1.1708287036	-0.8193998101	-0.3748352765	-0.399567
C	 0.6103693409	-0.9761408268	 1.0204119467	 0.272493
C	 1.3757042929	-0.6896060682	 2.2806619183	-0.501603
C	-0.6498367215	-1.8234040396	 0.9412313601	 0.289488
C	-0.7377849438	-3.3186352938	 1.0086287493	-0.510333
N	-1.7675553499	-0.9453260797	 1.3894422954	-0.384289
C	-1.2580324356	-0.850699582	-0.0106309795	-0.193491
H	 0.9462236795	 1.9150778836	 0.3779301187	 0.112967
H	-0.2456047969	 1.9496175106	-0.9234534929	 0.11429
H	-0.782188583	 1.8843188565	 0.7657183354	 0.132716
H	 1.0734167624	-1.615881764	-1.1093309168	 0.097838
H	 2.1139506619	-0.2827415085	-0.4365354943	 0.106262
H	 2.0566674976	 0.1582400679	 2.150787411	 0.114202
H	 0.6888843313	-0.448547972	 3.0985232201	 0.13273
H	 1.9831258964	-1.5496783548	 2.5883834269	 0.114042
H	-0.6231867053	-3.6784574472	 2.038101295	 0.126379
H	-1.7033127155	-3.6786188045	 0.6366756528	 0.115211
H	 0.0492221496	-3.7834424323	 0.4049079359	 0.125192
H	-2.6193409913	-1.5099987925	 1.3563127567	 0.214117
H	-1.9173243783	-1.0475424926	-0.8500692517	 0.082348
