16
gdb 106001	2.74861	1.58209	1.20652	2.2252	67.62	-0.2161	0.0547	0.2708	1024.3914	0.123033	-437.741236	-437.733463	-437.732519	-437.77358	29.93	
O	 0.176967154	 1.294172045	-0.2026361294	-0.413287
C	 0.0105448355	-0.066018637	 0.1779460634	-0.206751
C	-1.4110866418	-0.508705269	 0.1562355027	 0.259148
C	-2.6907734531	-0.0731923472	 0.9171482034	-0.104803
C	-3.2638956688	-1.4425128859	 0.8182472724	-0.145807
N	-3.5718110739	-0.4277792335	-0.251513492	-0.169018
C	-2.3292135657	-0.8775353253	-1.0130489967	-0.180008
C	-1.9966943072	-1.914818955	 0.0321819257	 0.302821
O	-1.2858612373	-3.0792376778	-0.0124576283	-0.447528
H	-0.2523918881	 1.4062936262	-1.0575308092	 0.281409
H	 0.6043622992	-0.7448385379	-0.4548645216	 0.100184
H	 0.4184774691	-0.1359512554	 1.1925713817	 0.120269
H	-2.9092594294	 0.7538283922	 1.5828862528	 0.102295
H	-4.04151912	-1.9462215686	 1.3811023474	 0.101512
H	-2.2038821037	-0.8300320535	-2.0884982377	 0.102674
H	-1.7581310089	-3.7108068371	-0.5683835547	 0.296891
