21
gdb 69490	3.03608	1.47469	1.22848	1.6346	81.62	-0.2517	0.0924	0.3441	1114.8437	0.182343	-387.088284	-387.079806	-387.078862	-387.120659	33.836	
C	-0.0375583941	 1.5236271146	 0.0467944022	-0.483884
C	-0.0816455055	 0.0226385671	 0.1412451378	 0.430938
C	-1.3360225397	-0.7435026273	-0.2877856417	-0.302648
C	-1.3035762411	-2.0282091338	 0.5372658864	-0.067378
C	-1.4064400062	-1.8917863869	 2.0406432549	-0.33725
C	-0.0522396577	-2.0726812079	 1.3943473427	 0.349433
C	 0.7650743919	-3.3241802633	 1.6060946481	-0.487525
C	 0.6638985939	-0.7798232415	 1.1238396845	-0.115094
O	 1.1253109947	-0.6674023956	-0.2341616819	-0.306752
H	 0.9218551416	 1.9052453806	 0.4045532412	 0.128528
H	-0.1657474295	 1.8479255045	-0.9921551368	 0.126655
H	-0.8403396906	 1.9762827388	 0.6385566245	 0.119092
H	-2.2400501755	-0.1513235503	-0.0999687432	 0.096848
H	-1.2981290583	-0.9506205325	-1.3630828862	 0.109464
H	-1.6757658334	-2.9426028114	 0.0884676039	 0.082778
H	-1.6667405011	-0.9226508487	 2.4577126563	 0.104448
H	-1.8078595091	-2.7345257881	 2.5941553309	 0.109641
H	 0.1233669955	-4.208023574	 1.6776462388	 0.113265
H	 1.4597887569	-3.4756409781	 0.7732445922	 0.131983
H	 1.3531086282	-3.267058397	 2.5298496135	 0.114388
H	 1.3178197492	-0.3345602092	 1.8728447319	 0.08307
