17
gdb 26449	4.23049	1.10643	0.88194	4.705	80.35	-0.1888	0.0265	0.2152	1266.6564	0.138451	-414.2272	-414.218797	-414.217853	-414.260602	30.875	
C	 0.0649417443	 1.4657315601	-0.0113824474	-0.349857
N	 0.0150516376	 0.0152712991	 0.0096101757	-0.162777
C	-0.0417070391	-0.66767321	 1.2054478085	 0.077333
N	-0.0526026575	-0.0662686128	 2.332514052	-0.501824
C	 0.0257885111	-0.6584316115	-1.2073602139	 0.410358
C	 0.0794957566	-0.1054876522	-2.4676638922	-0.223041
N	 0.0663743505	-1.1943150636	-3.3253306588	-0.244903
C	 0.0069890164	-2.3127066098	-2.5642765853	 0.022357
N	-0.0189356692	-2.0296570639	-1.2801289731	-0.333353
H	 0.981852633	 1.8141810763	-0.5024146902	 0.121028
H	-0.7971241894	 1.8745718524	-0.5526569837	 0.121019
H	 0.0476257643	 1.8142054272	 1.0197866601	 0.175213
H	-0.0741985884	-1.746654855	 1.0498645632	 0.133116
H	-0.0969316264	-0.7498372325	 3.0841678124	 0.219844
H	 0.1243103616	 0.9063326618	-2.8271181882	 0.13078
H	 0.0948731532	-1.153623338	-4.3295357437	 0.269085
H	-0.0151473986	-3.3053750177	-2.9877710156	 0.135622
