17
gdb 11222	4.64254	1.29624	1.08737	4.631	75.31	-0.2531	0.0068	0.2598	1092.0741	0.143068	-326.766583	-326.758749	-326.757805	-326.798921	28.775	
C	-0.0458274306	 1.5584242585	 0.0797810378	-0.490124
C	 0.0067294737	 0.0644423389	 0.0402946462	 0.32501
C	-0.2849072768	-0.7228053471	-0.9954974739	-0.166995
C	-0.0501439535	-2.1919543945	-0.6857843485	-0.169171
C	 0.097793913	-2.1978700107	 0.8679961172	-0.226913
C	 0.4752042177	-0.7444895203	 1.2326420426	-0.302603
C	-1.112776102	-3.076826381	-1.1669060882	 0.262051
N	-1.9537269611	-3.7731930349	-1.5468292398	-0.32961
H	 0.9412348707	 1.9807080652	 0.3070557242	 0.1304
H	-0.385860187	 1.9782144088	-0.8701787037	 0.130048
H	-0.7218538158	 1.9056348462	 0.8709669415	 0.132386
H	-0.6099226311	-0.3903206337	-1.9740965112	 0.108506
H	 0.8813527147	-2.5312379123	-1.1624571566	 0.126992
H	-0.86681413	-2.4544578816	 1.312743769	 0.131319
H	 0.8249654095	-2.9379837817	 1.2074475204	 0.115282
H	 1.5593005874	-0.6237962156	 1.3692130607	 0.111839
H	 0.0114261014	-0.4182100841	 2.170517842	 0.111583
