21
gdb 57252	2.11446	1.56284	1.21753	1.8489	83.42	-0.2535	0.055	0.3085	1155.6577	0.178286	-387.042516	-387.03216	-387.031216	-387.077193	39.321	
C	-0.2838614298	 1.5060499921	-0.2179929524	-0.413413
C	 0.0035972998	-0.0020151097	-0.0071221426	-0.017912
C	 0.8161457601	-0.213611289	 1.2934403637	-0.418492
C	-1.2851040798	-0.6907215223	 0.1345172208	 0.348903
C	-2.3487753954	-1.2239629023	 0.307012131	-0.486632
C	 0.7873381431	-0.5468651675	-1.2280195134	 0.425048
C	 2.1979862485	-0.0244444046	-1.4275411917	-0.476875
C	 0.4433491645	-1.8463410173	-1.8253168552	-0.239814
O	 0.0172803839	-0.6198530488	-2.4322944981	-0.27995
H	 0.6442910595	 2.0841133263	-0.2376814879	 0.11289
H	-0.8159576102	 1.6603490237	-1.1593951261	 0.144015
H	-0.9033861	 1.8875668872	 0.5975784457	 0.123392
H	 0.2314101405	 0.1160652552	 2.1559010473	 0.128098
H	 1.0632235445	-1.2696969523	 1.4347733205	 0.124027
H	 1.7447520155	 0.3630156105	 1.271001347	 0.118089
H	-3.2900055829	-1.6973427025	 0.4408168082	 0.194094
H	 2.8735576661	-0.3776905815	-0.6430922626	 0.125708
H	 2.5762283504	-0.3758521142	-2.3901998373	 0.130434
H	 2.2296614312	 1.0687563947	-1.4361158404	 0.127368
H	 1.2084816033	-2.3937992254	-2.3751311096	 0.103948
H	-0.3529084427	-2.4484904123	-1.3967570969	 0.127076
