17
gdb 90289	3.47417	1.28527	1.12415	5.3012	76.72	-0.2301	-0.0362	0.194	1097.1799	0.13643	-421.829935	-421.822311	-421.821367	-421.862039	29.816	
O	 0.0001720604	 1.4330053457	 0.0713422806	-0.420111
C	 0.0588411925	 0.0291303236	 0.0384256111	 0.095132
C	 0.1198095791	-0.6439817079	 1.4768587558	-0.358502
C	-1.3826325371	-0.6619280635	 1.3847382363	 0.317795
C	-2.5064154528	-0.2459352738	 1.9716761344	-0.345459
C	-3.4614654831	 0.1769280683	 0.9003958282	 0.386387
O	-4.6136292109	 0.5091909344	 1.0377675811	-0.329023
C	-2.661230031	 0.227643562	-0.4348085913	-0.365619
C	-1.390608139	-0.5560163074	-0.1163439151	-0.061688
H	 0.8598850087	 1.7711387084	 0.3405711638	 0.291369
H	 0.8061638683	-0.3314403966	-0.6798404629	 0.074316
H	 0.57800435	-1.6366914649	 1.4222305859	 0.122196
H	 0.5775261597	-0.0723758933	 2.2881718526	 0.117312
H	-2.7133727293	-0.0968073235	 3.0232601999	 0.111052
H	-3.2556236701	-0.1480440505	-1.2698697563	 0.118812
H	-2.4251232579	 1.2795852762	-0.6292545956	 0.153018
H	-1.3375824876	-1.5251607673	-0.6221458886	 0.093013
