24
gdb 10519	2.56927	1.32949	1.02464	0.1475	85.29	-0.2609	0.0808	0.3417	1299.2601	0.222491	-314.272354	-314.26245	-314.261505	-314.307241	36.843	
C	-2.0504726198	 1.5283501348	-1.2940731624	-0.379547
C	-1.9124234917	 0.0032646412	-1.3016796137	-0.164422
C	-1.6772359869	-0.5790208647	 0.0994188242	-0.255934
C	-1.6285448224	-2.1010059069	 0.1532693104	 0.406878
C	-0.5108505197	-2.7844753769	-0.6259524446	-0.25223
C	 0.9014669185	-2.4274023548	-0.146101957	-0.381075
C	-2.057330244	-2.7592422245	 1.4447154071	-0.31576
C	-2.9535385302	-2.8242846773	 0.229497602	-0.31203
H	-2.2102718605	 1.9214520688	-2.3030708055	 0.109544
H	-2.8969747888	 1.8465166054	-0.6750283452	 0.111966
H	-1.1507402193	 2.0060660456	-0.8898970023	 0.11238
H	-2.8159406608	-0.4480614225	-1.7310616975	 0.096977
H	-1.0864995428	-0.2804935659	-1.965537187	 0.097264
H	-0.7492017146	-0.1611715664	 0.5129815276	 0.092987
H	-2.4797981111	-0.2326631982	 0.7639800398	 0.086253
H	-0.6497574465	-3.8698903899	-0.5487199557	 0.089264
H	-0.6044750386	-2.5480698538	-1.6937312919	 0.096107
H	 1.6566893472	-2.9940530656	-0.6998447022	 0.109169
H	 1.122449964	-1.3644517978	-0.2861980592	 0.116596
H	 1.0246733194	-2.6536525782	 0.9184226929	 0.116496
H	-1.5480406849	-3.6680314529	 1.749573418	 0.104933
H	-2.3626201343	-2.1259494026	 2.2713404332	 0.104807
H	-3.861631995	-2.2297627119	 0.235945952	 0.10469
H	-3.0528600672	-3.7761158551	-0.2822135928	 0.104687
