15
gdb 16614	3.57031	2.21383	1.50907	4.0796	67.77	-0.2482	-0.0471	0.2011	829.4758	0.119514	-362.679937	-362.672981	-362.672037	-362.711143	25.96	
C	 0.0045171246	 1.5073083869	 0.0075076048	-0.488654
C	-0.0562532755	 0.0168475235	 0.0201234951	 0.216911
C	-1.1010321652	-0.8159617435	-0.1024059867	-0.201202
C	-0.6394397951	-2.2291613412	-0.0759351468	-0.069911
C	 0.2699579827	-2.6949463417	-1.1695255128	-0.23921
N	 0.8126044962	-2.2041717104	 0.1133652335	-0.124395
C	 1.1902120134	-0.8070634226	 0.0718466682	 0.309023
O	 2.327603928	-0.4138029543	 0.0564592829	-0.321011
H	 0.6866436856	 1.8541695238	-0.7760649309	 0.147969
H	-0.9790296845	 1.9544085374	-0.1547807079	 0.123303
H	 0.408285439	 1.8843251627	 0.9536799974	 0.146636
H	-2.1431501713	-0.53345371	-0.1933382012	 0.11811
H	-1.1943854586	-2.9648022478	 0.4997240638	 0.113725
H	 0.403901668	-3.7583592253	-1.3467579539	 0.134906
H	 0.3789488327	-2.0559539575	-2.0422644755	 0.1338
