19
gdb 39873	3.3276	1.58718	1.43772	1.8674	78.15	-0.2518	0.073	0.3248	974.9498	0.160939	-385.824372	-385.817576	-385.816632	-385.855296	28.389	
C	-0.0067947904	 1.5070214523	 0.0104240135	-0.279996
O	 1.1654908277	 0.6733245766	-0.0061012599	-0.289821
C	-0.1105053635	 0.0483912465	 0.0031503022	 0.47986
C	-0.4699492164	-0.9476585314	 1.1056035887	-0.134425
C	-2.0028256154	-1.0745414818	 1.3124166264	-0.234679
C	-2.1219119105	-1.9104758065	 0.0121837514	-0.03388
C	-2.028865745	-1.0597618774	-1.2805654512	-0.234679
C	-0.4921308983	-0.9350677639	-1.1031447809	-0.134425
C	-0.5562213935	-2.065599993	-0.0044242124	-0.034606
H	-0.1696071766	 2.0608620535	 0.9346857908	 0.110881
H	-0.1880722228	 2.0713443475	-0.9040076538	 0.110881
H	 0.1861559904	-0.9695515457	 1.9758615646	 0.076528
H	-2.2167080009	-1.694344043	 2.1881812626	 0.102661
H	-2.587755005	-0.1514431457	 1.3865971767	 0.091424
H	-2.8268646001	-2.7419324989	 0.0145244486	 0.065556
H	-2.2603619845	-1.6695675552	-2.1588657088	 0.102661
H	-2.61506227	-0.1359457668	-1.3324591793	 0.091424
H	 0.1463631867	-0.9469633589	-1.9865960967	 0.076528
H	 0.0058651979	-2.9953290181	-0.0153697725	 0.068108
