21
gdb 32430	3.06619	1.18229	0.86874	1.3122	88.61	-0.1651	0.0592	0.2243	1380.5571	0.18207	-383.309551	-383.299139	-383.298195	-383.344995	37.571	
C	-0.0144188546	 1.4119939376	-0.0960361432	-0.316963
N	 0.0287116585	-0.0201671662	 0.1291299133	-0.381092
C	-1.1855473917	-0.7151357081	 0.0312031241	 0.227533
C	-2.4586935663	-0.1917693321	-0.0206860103	-0.187655
N	-3.3363057298	-1.2608309783	-0.0366999012	-0.320751
C	-2.6469160231	-2.4460653098	-0.010058752	 0.244226
C	-3.3614435503	-3.7576397735	-0.0393765243	-0.504836
C	-1.2987472415	-2.1448578825	 0.0355320383	 0.112463
C	-0.1388794756	-3.0908221393	 0.091030627	-0.526264
H	 0.99949168	 1.8182845508	-0.054847242	 0.114285
H	-0.4699066759	 1.6971266685	-1.0602644458	 0.100353
H	-0.5984221855	 1.8900003312	 0.6989796888	 0.125733
H	 0.7627004926	-0.4679160501	-0.4034068595	 0.226327
H	-2.8146235759	 0.8240080161	-0.0311442683	 0.103855
H	-4.3366088787	-1.1809450442	-0.0635778872	 0.248871
H	-3.8692134557	-3.9356347683	-0.996585974	 0.123882
H	-2.6593120916	-4.5803682656	 0.1121456945	 0.133914
H	-4.1212751908	-3.8273349107	 0.7492680904	 0.121386
H	 0.469831263	-3.0623414095	-0.8241450204	 0.111185
H	 0.532609828	-2.8503624525	 0.9246244113	 0.126609
H	-0.4653496949	-4.1265819736	 0.2199864606	 0.116938
