16
gdb 18001	3.57671	1.89809	1.71795	3.5458	64.36	-0.2449	-0.0293	0.2156	819.4523	0.130127	-383.70694	-383.699863	-383.698919	-383.738999	25.914	
O	 0.1682154789	-0.0604588282	-0.591290902	-0.242994
C	 0.0949478565	 1.062469533	-0.1671448752	 0.146917
C	 1.2516191192	 2.021518695	-0.032172691	 0.050608
O	 2.5481286914	 1.4575737575	-0.2576030691	-0.288147
C	 2.8564883199	 2.4325832226	-1.2774015196	 0.13228
C	 2.5616795752	 1.9221039488	-2.7055235223	-0.22968
C	 1.1269013046	 2.5335866975	-2.61583447	-0.237727
C	 1.4331244506	 3.0549082307	-1.182825393	-0.121296
H	-0.8788542198	 1.5097222513	 0.1477894969	 0.070592
H	 1.185219532	 2.5020772492	 0.9574144076	 0.091343
H	 3.7936221013	 2.9568688896	-1.0751369851	 0.081394
H	 3.1878271858	 2.3745270458	-3.4787502496	 0.103069
H	 2.6140143161	 0.8351467041	-2.7881991299	 0.129841
H	 0.9590535359	 3.3476743733	-3.3239772733	 0.108601
H	 0.2994346397	 1.8268336175	-2.7048157632	 0.121582
H	 1.2176350627	 4.0962137723	-0.9504724911	 0.083616
