19
gdb 76251	2.42086	1.40686	0.96826	5.3403	80.62	-0.2446	-0.0183	0.2263	1246.099	0.158409	-419.238289	-419.228743	-419.227799	-419.272915	34.181	
C	-0.0253413849	 1.6038238105	 0.1889693089	-0.403332
C	 0.0673819466	 0.0912541525	 0.0475998858	 0.027639
C	 0.7541126799	-0.508819061	-1.2282206604	-0.170979
C	 1.2764390435	 0.406073819	-2.32883799	-0.40832
C	 1.8062512395	-1.0913723939	-0.2628639701	 0.439596
O	 2.8031232877	-1.7412114212	-0.3730983636	-0.332872
N	 1.1356215135	-0.5494569989	 0.8474093017	-0.104877
C	 1.2901960519	-0.6158536474	 2.2200413441	 0.065985
N	 2.2563771417	-1.2195571691	 2.7799582677	-0.413731
H	 0.9454280824	 2.0826939264	 0.0366027244	 0.132185
H	-0.7328234085	 2.0105539238	-0.5404542251	 0.12923
H	-0.3845799646	 1.880135107	 1.1856716554	 0.123655
H	-0.9105899087	-0.3630915524	 0.2451576016	 0.091759
H	 0.15089672	-1.3121061929	-1.6631022005	 0.108247
H	 1.9050695872	 1.2084147464	-1.9332465522	 0.128127
H	 1.8861971109	-0.1754246151	-3.0261058839	 0.143843
H	 0.4556907159	 0.8594322667	-2.8933154988	 0.121258
H	 0.4779847164	-0.0873126736	 2.7371794561	 0.093512
H	 2.1701260496	-1.1482088169	 3.7925399187	 0.229074
