16
gdb 11494	3.21702	1.49117	1.15169	1.1725	65.87	-0.2476	-0.0951	0.1525	1038.8528	0.12862	-383.74386	-383.735588	-383.734643	-383.777593	28.933	
O	-0.2806610495	 2.191825657	-0.9136840549	-0.215282
C	 0.6079416185	 1.4063198422	-0.7107204082	 0.083843
C	 1.8105375318	 1.682229896	 0.2070312101	 0.302535
O	 2.6089389139	 0.7867921418	 0.3610384859	-0.279251
C	 1.9234278991	 3.0588743867	 0.8227521315	-0.322873
C	 2.7112797273	 3.9796453538	-0.1018390252	 0.016158
C	 2.0290342518	 4.6787964717	-1.2532772934	-0.259909
C	 2.4842041834	 5.4692590638	-0.0531050914	-0.275723
H	 0.6387683704	 0.3889275117	-1.1548789189	 0.109878
H	 0.921181594	 3.4681744566	 0.9801892317	 0.125702
H	 2.4315878734	 2.9611563231	 1.7868393767	 0.126843
H	 3.7324624413	 3.6511170211	-0.2725272718	 0.100966
H	 2.5779864044	 4.7903504543	-2.1816676793	 0.115923
H	 0.9650089526	 4.5126350172	-1.378604743	 0.137026
H	 1.7250076917	 5.8421061911	 0.6264291552	 0.116805
H	 3.3458403659	 6.119434922	-0.1558783349	 0.117357
