16
gdb 28113	5.20576	1.28701	1.03858	1.5834	79.96	-0.1783	0.0261	0.2044	1113.3529	0.127513	-396.989353	-396.981785	-396.980841	-397.021385	29.027	
C	-0.021022469	 1.4689288317	 0.0121910572	-0.50287
C	-0.001071851	-0.0215005773	-0.0317247409	 0.319329
N	-0.0421977809	-0.7519148433	-1.1352716585	-0.399534
C	-0.000575246	-2.0320773737	-0.6663526169	 0.341577
C	 0.0659423282	-2.1146514528	 0.7144561688	 0.319251
N	 0.0646106723	-0.790760708	 1.1170039565	-0.444261
C	 0.1044397239	-3.4821293932	 1.0921788117	-0.322051
C	 0.0584682223	-4.1824216723	-0.1012538201	-0.06452
N	-0.0053123548	-3.3061034429	-1.1718596517	-0.389226
H	 0.8822730267	 1.8784523962	 0.4805222045	 0.12886
H	-0.0791980493	 1.847108422	-1.009063169	 0.155714
H	-0.8831656964	 1.8520251298	 0.5715295984	 0.128715
H	 0.1043937731	-0.4333950601	 2.0555267061	 0.257762
H	 0.1575151264	-3.9214802997	 2.0756197682	 0.092268
H	 0.0665158356	-5.2470982697	-0.2706155387	 0.115757
H	-0.0471590312	-3.5665794965	-2.1407808156	 0.263229
