18
gdb 67159	2.89813	1.49906	1.459	1.649	74.86	-0.2346	-0.0174	0.2172	998.9579	0.148521	-401.936706	-401.929205	-401.92826	-401.968484	29.677	
C	-0.1817775014	 1.5071130875	-0.1038293194	-0.514969
C	 0.0728221674	 0.0389520114	 0.0199150068	 0.337436
C	 0.7982981206	-0.8561965184	-0.9131439632	-0.071748
C	 1.7843606961	-1.7489496426	-0.1864977065	-0.364672
C	 1.4435453001	-1.5330687768	 1.302775691	 0.423132
O	 2.1025249982	-1.8813610199	 2.2455031469	-0.322621
C	 0.1014197165	-0.8179756034	 1.319270873	-0.225282
C	-0.9001259403	-1.7407385417	 0.5617306071	-0.167693
N	-0.6816054165	-1.0264129584	-0.7367602959	-0.187144
H	 0.6497044146	 2.0867644662	 0.3130570617	 0.1276
H	-0.2967636735	 1.7813187627	-1.1566488314	 0.135585
H	-1.0953504033	 1.8016339007	 0.423824294	 0.127647
H	 1.0372996499	-0.5075436359	-1.9116926019	 0.102551
H	 1.7140039732	-2.8115865336	-0.4439088357	 0.138044
H	 2.8170864973	-1.4414718714	-0.3797470535	 0.136116
H	-0.1907096925	-0.4026750544	 2.2809699798	 0.090686
H	-0.7000147024	-2.8181361081	 0.5486353318	 0.110639
H	-1.931077504	-1.574898524	 0.8798446154	 0.124692
