18
gdb 79976	2.6727	1.54746	1.32219	1.9265	76.58	-0.2317	-0.0252	0.2065	1025.1411	0.147196	-401.926104	-401.91797	-401.917026	-401.958918	30.697	
C	-0.6246721043	 1.0332006299	-0.0752488854	-0.327524
N	-0.1814176785	-0.3083294862	 0.2738765368	-0.085046
C	 1.1404913641	-0.8310415353	-0.1007212651	-0.073187
C	 2.2229522088	 0.1447214576	-0.4313109128	-0.092804
C	 2.5181728541	 0.9274422997	 0.6091756923	-0.085757
C	 1.7340982806	 0.5303465917	 1.8400176217	-0.149064
C	 1.0764017208	 1.6627741453	 2.6058058646	 0.153517
O	 1.2468268227	 2.8348593747	 2.3887498187	-0.249088
C	 0.7714649713	-0.5673478435	 1.3366907926	-0.0812
H	 0.1604695912	 1.799630319	-0.08177913	 0.129944
H	-1.0802826261	 0.997404701	-1.0698426399	 0.121997
H	-1.3977502435	 1.3365372284	 0.63789911	 0.124324
H	 1.133753342	-1.8193880609	-0.5518626254	 0.094518
H	 2.6624667337	 0.2219139863	-1.4190230213	 0.105196
H	 3.195025485	 1.7723814816	 0.6070152373	 0.1194
H	 2.3970549535	 0.0528388931	 2.5829116792	 0.116881
H	 0.4178961257	 1.3225800913	 3.4379043102	 0.081297
H	 0.4942511289	-1.3569111037	 2.0293289165	 0.096595
