19
gdb 105212	2.22316	1.49635	1.06892	2.7065	72.99	-0.2319	-0.0174	0.2145	1177.4119	0.155322	-460.14903	-460.138876	-460.137932	-460.184099	36.639	
C	-1.3272755903	 0.2185231087	-0.0062255963	-0.275406
O	 0.0790966625	-0.0341293539	 0.037208126	-0.302497
C	 0.5864414099	-0.7089456114	-1.0759502816	 0.233986
C	 1.6655893373	-1.7437514996	-0.7372493523	-0.370396
C	 0.3133731543	-2.218724599	-1.1359859517	 0.105271
O	-0.5615994253	-2.7903921932	-0.2176859162	-0.421057
C	 0.8017889826	 0.0280431709	-2.3636208152	 0.330586
C	 0.5782453666	 1.5279205969	-2.3799053711	-0.492156
O	 1.1790908868	-0.5764681723	-3.3478849091	-0.326948
H	-1.5790450752	 0.9933797883	-0.7400560235	 0.113272
H	-1.8868286243	-0.6933074525	-0.2353621996	 0.14162
H	-1.605052193	 0.5802830829	 0.9866614061	 0.130501
H	 2.4799944371	-1.8402079386	-1.4454090111	 0.142803
H	 1.9320598976	-1.7929581059	 0.3139154	 0.12438
H	 0.186859988	-2.6436475595	-2.1246374802	 0.137856
H	-0.3791234147	-2.4026464812	 0.6458020979	 0.292112
H	 0.8485876841	 1.9839508558	-1.4246006599	 0.14494
H	 1.1536783936	 1.9621546896	-3.1988767119	 0.14394
H	-0.4817678375	 1.7410830338	-2.5608698104	 0.147192
