14
gdb 13224	9.11724	0.80372	0.78104	1.0106	80.38	-0.2475	-0.022	0.2255	1394.4086	0.105986	-345.322957	-345.315098	-345.314154	-345.35586	27.803	
C	-0.053412353	-3.8370068715	-0.1356183896	-0.561493
C	-0.0310246908	-2.6305071192	-0.0873327714	 0.305467
C	-0.0067292401	-1.2716636201	-0.0340489518	-0.317853
C	 0.0164407359	-0.0617497325	 0.0150652729	 0.476802
C	 0.0502970807	 1.3783235321	 0.0804888364	-0.266419
C	-0.1010115527	 2.0750937331	 1.465453527	-0.073177
O	 1.077902846	 2.866593039	 1.2381314795	-0.264534
C	 1.4294688208	 2.1024260428	 0.0717541597	-0.073178
H	-0.0725313468	-4.8977237713	-0.1773957274	 0.193261
H	-0.6305723873	 1.8102550883	-0.6587248502	 0.120963
H	-0.9960656098	 2.6901837547	 1.6032157277	 0.115374
H	 0.0129335416	 1.3916629341	 2.3156810597	 0.114706
H	 2.278561823	 1.4321216137	 0.2525326159	 0.114706
H	 1.6379807923	 2.7372241568	-0.7954201385	 0.115374
