21
gdb 114702	3.50047	1.11134	1.05175	2.4971	78.52	-0.2352	0.0757	0.3109	1245.9229	0.182409	-424.213439	-424.20458	-424.203636	-424.246628	34.501	
C	 0.4322960208	 0.6972842666	-0.563431156	-0.237673
O	-0.1303195119	-0.4920354569	-0.0624630139	-0.236413
C	-1.5249846325	-0.4111216723	 0.211740628	 0.097648
C	-2.4004270388	-0.5399295354	-1.0688415993	-0.240011
C	-2.7175405497	-2.0195158254	-1.1988931128	-0.110456
C	-1.5622178386	-3.0025951694	-1.0788960499	-0.320804
C	-2.3989389457	-2.6945785067	 0.1215915589	 0.419032
O	-3.1470535107	-3.7529909726	 0.6389386399	-0.473783
C	-1.9017131971	-1.6242289582	 1.0842208854	-0.296705
H	 1.5056139724	 0.5240422824	-0.674580806	 0.127822
H	 0.0225848308	 0.983512658	-1.5433758125	 0.106295
H	 0.2779468045	 1.5389464341	 0.1305205164	 0.103158
H	-1.7226623804	 0.5370822547	 0.7327579873	 0.064196
H	-3.3274971241	 0.0322672084	-0.9397588728	 0.094159
H	-1.8861315912	-0.1213582595	-1.940514551	 0.102857
H	-3.5801736121	-2.3295172651	-1.778370387	 0.080634
H	-1.7305269801	-3.980537556	-1.5158962795	 0.113813
H	-0.5442743566	-2.6344215941	-1.1263318688	 0.130557
H	-3.9489678974	-3.3875444357	 1.0299887149	 0.274895
H	-1.0513224219	-1.937581303	 1.6957109643	 0.116805
H	-2.7214956696	-1.3529272839	 1.7627973644	 0.083972
