14
gdb 43575	3.37191	1.40105	1.14211	2.1756	67.56	-0.2785	-0.0117	0.2668	1027.9342	0.102324	-432.856674	-432.84946	-432.848516	-432.888858	26.789	
N	 0.0209336283	 1.1552793032	 0.4419663452	-0.524368
C	 0.0042809637	-0.013663959	-0.010505703	 0.442425
O	 1.1166284116	-0.6908700084	-0.4904315441	-0.245013
C	 0.7306035649	-1.9430328316	-1.0573169867	-0.056034
C	 1.5959042565	-3.0143746819	-0.5470056038	 0.284749
N	 2.2577681677	-3.8775049866	-0.1591790527	-0.307976
C	-0.7440941109	-2.0972242441	-0.6803741822	-0.047709
C	-1.0801961847	-2.0237077329	 0.7563332953	-0.248997
N	-1.1670586444	-0.814805139	-0.1065101543	-0.126607
H	 0.9630089722	 1.542998511	 0.4103201661	 0.240487
H	 0.8418198586	-1.894365304	-2.1470959796	 0.149371
H	-1.4031202006	-2.5666706418	-1.4012403023	 0.133312
H	-2.0405736765	-2.3871439055	 1.1034477657	 0.149239
H	-0.2706080665	-2.0712112294	 1.4793267265	 0.157123
