18
gdb 93757	2.18753	1.61632	0.96867	6.0513	79.41	-0.221	-0.0397	0.1813	1187.5295	0.148157	-439.123467	-439.114677	-439.113733	-439.156756	33.25	
N	 0.0901304859	 1.352880679	 0.0892357528	-0.587234
C	-0.0037915853	 0.0023052143	-0.0003250188	 0.28002
C	-1.1147628289	-0.7914231086	 0.0084097607	 0.128815
C	-2.4885205602	-0.3813317516	 0.0421541795	 0.042048
O	-3.4379745653	-1.1567352929	 0.0229643968	-0.326154
C	-0.7326048994	-2.2627579506	-0.0041496682	 0.052069
O	-1.4807934106	-3.0399488784	-0.9182722844	-0.448303
C	 0.7506645129	-2.2356764792	-0.4235413108	-0.231715
C	 1.2581416219	-0.8311161187	-0.0362087437	-0.308653
H	 0.9581806706	 1.7971580217	-0.1577728983	 0.264876
H	-0.7337621064	 1.924322728	 0.0022395146	 0.2678
H	-2.6844158041	 0.7162543956	 0.0751257268	 0.040729
H	-0.8388514876	-2.6826008601	 1.0119552529	 0.066087
H	-2.4079840984	-2.8365729635	-0.7250650562	 0.29349
H	 1.3405289815	-3.0392236093	 0.0218455157	 0.104515
H	 0.7732018347	-2.3595542537	-1.5100107809	 0.122917
H	 2.0006667176	-0.4258695051	-0.734221777	 0.109606
H	 1.7254692208	-0.821594767	 0.9576723685	 0.129086
