21
gdb 59838	3.46768	0.64312	0.55956	0.5949	92.95	-0.2467	0.0406	0.2874	2005.6189	0.178828	-349.903116	-349.891993	-349.891049	-349.941732	39.469	
C	-1.1288604376	 0.1094214274	 0.261362499	-0.383174
C	 0.3421685167	-0.3174330972	 0.2109904309	 0.051023
C	 0.8749946142	-0.3250276691	-1.2264539516	-0.39066
C	 1.2280294844	 0.5910837452	 1.0999997003	-0.347167
C	 0.8754091615	 0.5548960234	 2.5150306971	 0.03009
C	 0.5664572116	 0.5021724121	 3.677045917	 0.131348
C	 0.1927644663	 0.4473724401	 5.0920920606	-0.493865
C	-1.2523139309	 0.3492465724	 5.3112779531	 0.319255
C	-2.4351059741	 0.267897685	 5.5008810737	-0.447394
H	-1.2552313301	 1.120429973	-0.1452984803	 0.108289
H	-1.7522625	-0.5670118463	-0.3322237981	 0.108884
H	-1.5061614963	 0.1102617727	 1.2875881591	 0.135127
H	 0.4179079791	-1.3357169075	 0.6139323668	 0.083952
H	 0.8342627928	 0.6792864582	-1.6653653587	 0.112548
H	 1.9150506689	-0.6659647922	-1.2691255448	 0.109833
H	 0.2786060152	-0.9873034993	-1.8619065713	 0.112343
H	 2.2784595498	 0.2944600235	 0.9813427912	 0.121544
H	 1.1618683266	 1.624335811	 0.7304219605	 0.122117
H	 0.6881926427	-0.406993564	 5.5741236047	 0.158032
H	 0.5751525014	 1.3382823642	 5.6096743219	 0.158901
H	-3.4817241121	 0.1967050974	 5.6644205089	 0.198975
