15
gdb 29048	2.80808	1.72485	1.07991	3.8545	84.17	-0.2251	-0.0709	0.1542	1044.6346	0.11578	-413.01795	-413.010515	-413.009571	-413.050666	28.282	
N	 0.0288668921	 1.3504257704	-0.1524586593	-0.524069
C	-0.0218275371	 0.0187251234	-0.055846733	 0.348065
C	-1.2187693666	-0.6685744352	-0.0071029585	-0.204577
C	-1.4138318277	-2.0556737941	 0.137951568	 0.042556
N	-0.5922186989	-3.0751204027	 0.0836784382	-0.299973
C	 0.7405449096	-2.9380447942	-0.1534821349	 0.084802
N	 1.5780235623	-1.9463947975	-0.1573132242	-0.321778
C	 1.3405536772	-0.6060002424	 0.0403819998	 0.305
N	 2.2935309229	 0.2337216861	 0.2421720196	-0.530239
H	 0.9511289741	 1.7606237188	-0.0517065735	 0.290046
H	-0.8018654084	 1.9157544834	-0.1901207282	 0.267858
H	-2.125105779	-0.0674516762	-0.0113766824	 0.085164
H	-2.4552617777	-2.3397008556	 0.3088448397	 0.113366
H	 1.210955007	-3.9017376465	-0.3613174959	 0.116226
H	 3.1813239302	-0.2683652677	 0.2622503245	 0.227552
