22
gdb 99281	3.83977	0.7729	0.73681	1.6272	79.72	-0.2191	0.0147	0.2338	1665.1857	0.191719	-441.513976	-441.502885	-441.501941	-441.551287	38.877	
C	 1.1696534253	 1.1909006495	 0.1356685852	-0.240206
O	 0.7222427484	-0.1676468577	 0.0251777475	-0.230246
C	 0.5227998326	-0.8088603131	 1.1911484384	 0.441994
O	 0.713359364	-0.3132056638	 2.2744303617	-0.365747
C	-0.029486291	-2.2129053443	 0.962751318	-0.287458
N	-0.0081938756	-3.0680304415	 2.1306275875	-0.277774
C	 1.1938593578	-3.8954528015	 2.3093817881	 0.06912
C	 2.5171827494	-3.1194805567	 2.4364297941	-0.382554
C	 0.9698154875	-4.8034945926	 3.5209405749	-0.389004
H	 2.1278732293	 1.2385579742	 0.6588947629	 0.142001
H	 1.2741660989	 1.5534710906	-0.8868798116	 0.13439
H	 0.440515984	 1.7933340232	 0.6832753869	 0.141274
H	-1.0629159976	-2.0736166408	 0.6103913572	 0.131713
H	 0.5061873395	-2.6799626821	 0.1306720394	 0.131216
H	-0.1451720819	-2.4884711707	 2.9549220745	 0.222271
H	 1.2583473536	-4.5325009734	 1.415516818	 0.077509
H	 2.4931390391	-2.4465656281	 3.2996603231	 0.124572
H	 3.3585185114	-3.8101623427	 2.5601605221	 0.106255
H	 2.7206294646	-2.5137948429	 1.5475998733	 0.106639
H	 0.9016787624	-4.2108071508	 4.4415211327	 0.112176
H	 0.0396640158	-5.3668509247	 3.4116057823	 0.121178
H	 1.7984640523	-5.5074725901	 3.6425079538	 0.110681
