20
gdb 58723	3.44355	1.32874	1.22334	2.1024	80.74	-0.2089	0.0694	0.2783	1116.2273	0.169889	-365.893327	-365.885068	-365.884123	-365.926186	32.214	
C	 0.0532657752	 1.48086389	-0.1793759081	-0.386448
C	-0.0106897931	-0.0363441636	 0.064345605	-0.129301
C	 0.7191002762	-0.4250269763	 1.3609241166	-0.385689
C	-1.4278396776	-0.5244919706	 0.0693115753	 0.40295
C	-1.9946445433	-1.9389875826	-0.1474135578	-0.194723
C	-3.2007046574	-1.575730129	 0.7519702801	-0.046791
C	-2.6627472356	-0.2082629705	 0.968719261	-0.128505
N	-3.6168451733	-0.4595420271	-0.1704025307	-0.179664
C	-2.4088145439	-0.796749149	-1.0442830186	-0.093701
H	 1.0910356376	 1.8271881169	-0.2187886555	 0.11061
H	-0.4346161723	 1.751921407	-1.1202604794	 0.118788
H	-0.4488153145	 2.0271242771	 0.6272026477	 0.117183
H	 0.4959451317	-0.5369930221	-0.7738386228	 0.076717
H	 0.2417430981	 0.0397646234	 2.2312395181	 0.11672
H	 0.7076567374	-1.5085624104	 1.5121784757	 0.115614
H	 1.7619811093	-0.0930825129	 1.3379315025	 0.11094
H	-1.4703015611	-2.8592000223	-0.3638083109	 0.092847
H	-3.9200388893	-2.1643260568	 1.3090340771	 0.094768
H	-2.8635482443	 0.5331467304	 1.7337504021	 0.091785
H	-2.3623422297	-0.6540575416	-2.1172573775	 0.0959
