21
gdb 52850	3.35117	0.88041	0.85013	1.5756	87.46	-0.239	0.0589	0.2979	1503.4471	0.181712	-387.077	-387.066904	-387.06596	-387.114119	35.824	
C	 0.1055272259	 1.5920080867	-0.3008812482	-0.500542
C	 0.0666397925	 0.1440904225	-0.1481839776	 0.079956
C	 0.0364090495	-1.053538152	-0.0197734578	 0.014979
C	-0.0128308723	-2.5054413935	 0.1195144966	 0.120794
C	 0.7302151817	-3.1916650033	-1.0465744887	-0.432091
C	 0.5404067401	-3.0086817411	 1.4946819883	-0.278878
C	-0.4644740737	-4.1071840232	 1.9261540893	-0.079584
O	-1.361034488	-4.2934770618	 0.8353077779	-0.247865
C	-1.4698773263	-3.0389048235	 0.1939253264	-0.109246
H	 1.1364820746	 1.9601659135	-0.3488963176	 0.147041
H	-0.4012111574	 1.9099794987	-1.2189130841	 0.147116
H	-0.3861274826	 2.0956452502	 0.5388784378	 0.146479
H	 1.7938757249	-2.9380218347	-1.0313257248	 0.118502
H	 0.6262029445	-4.2776682162	-0.964372878	 0.125828
H	 0.3190529284	-2.8734257896	-2.0089777473	 0.119292
H	 1.5567784951	-3.3942105247	 1.3850864741	 0.110069
H	 0.5712231429	-2.1938547018	 2.2199534399	 0.11303
H	 0.0038618368	-5.0720154755	 2.1378293559	 0.109048
H	-1.0194679849	-3.7922745642	 2.8228884182	 0.093976
H	-2.0984323162	-2.3430933861	 0.7720366542	 0.090258
H	-1.9223981056	-3.1934421003	-0.7886659146	 0.111839
