20
gdb 41413	3.24856	1.84794	1.50375	1.5493	81.06	-0.2329	0.0896	0.3225	939.725	0.174463	-365.960477	-365.953893	-365.952948	-365.990989	28.261	
C	-0.0461329429	 1.4843780441	 0.0378266111	-0.238611
C	 1.510935559	 1.579081828	-0.0572277872	-0.335471
C	 1.555756079	 0.0761582556	-0.3654405412	 0.352577
C	 2.4674057834	-1.0326007774	 0.1222271584	-0.319717
C	 1.6877572483	-2.2624479633	-0.4328788708	-0.153345
N	 0.8519178992	-1.7791458843	-1.569702526	-0.112007
C	-0.2098164679	-0.787678757	-1.2678912918	-0.045168
C	 1.13118908	-0.373735201	-1.788630678	-0.10942
C	 0.041530137	-0.0771939389	 0.0508474988	-0.080266
H	-0.4835053808	 1.9283103195	 0.9341828616	 0.1015
H	-0.5709798725	 1.883174699	-0.8339287697	 0.104625
H	 1.9366700849	 2.2541719763	-0.8055603612	 0.095907
H	 1.9601602199	 1.8151308594	 0.9121986378	 0.10316
H	 3.4739822002	-0.9670768477	-0.309065563	 0.09698
H	 2.5670359745	-1.0590082123	 1.212200571	 0.096808
H	 2.355323098	-3.0401534092	-0.8134599722	 0.106326
H	 1.049651443	-2.7188714697	 0.3299761064	 0.106814
H	-1.1513483097	-0.9094864482	-1.7952372256	 0.086274
H	 1.4618284471	 0.0019867049	-2.7509459828	 0.082828
H	-0.2553786397	-0.5566162977	 0.9879682546	 0.060206
