15
gdb 28075	5.67373	0.97205	0.83049	2.0619	71.84	-0.1884	0.0182	0.2067	1308.2366	0.114874	-450.165133	-450.157064	-450.15612	-450.197797	30.267	
N	-0.0816691082	 1.3704180577	 0.1433682718	-0.589391
C	-0.0607786026	 0.0020398582	 0.0503076239	 0.47318
N	-1.0796084758	-0.804780388	 0.0343109383	-0.415229
C	-0.4871838571	-2.0647839757	 0.0129199389	 0.338293
N	-1.319744001	-3.1717061642	-0.0044659862	-0.385571
C	-0.9168928372	-4.4781426651	-0.0314887493	 0.073799
N	 0.3141970099	-4.8162831216	-0.0490364033	-0.459205
C	 0.8621697175	-1.9573631994	 0.00923968	-0.124705
O	 1.1432205502	-0.588955696	 0.0349414057	-0.188972
H	 0.7211289958	 1.8312185601	-0.2590455908	 0.265355
H	-0.9630071452	 1.7738267621	-0.1364910749	 0.269496
H	-2.3037377555	-2.9617486343	 0.0116271377	 0.261502
H	-1.7699944341	-5.1659184361	-0.0362679041	 0.091892
H	 0.3990726305	-5.8294892561	-0.0680716287	 0.221802
H	 1.685395803	-2.6408582516	-0.0114486489	 0.167755
