15
gdb 47180	2.41986	1.75372	1.06855	4.276	71.24	-0.2542	-0.062	0.1922	1062.5501	0.115	-453.988225	-453.98076	-453.979816	-454.02065	28.022	
N	-0.0735737781	 1.1860523614	-0.6484064764	-0.539227
C	 0.0665750652	 0.1098821724	 0.005833686	 0.429082
N	-1.0777705745	-0.5265197491	 0.5017685457	-0.379469
C	-1.4253928148	-1.8755479602	 0.6223396229	 0.386308
O	-2.6006837113	-2.18418668	 0.6324592837	-0.348108
C	-0.3713494953	-2.8970570735	 0.8116480792	-0.113278
C	 0.876528551	-2.6630327945	 1.2164836893	-0.082856
C	 1.4321133397	-1.2818086517	 1.417191268	-0.156708
O	 1.2699801622	-0.4540010959	 0.2552718048	-0.234039
H	 0.8392171003	 1.5840645401	-0.8614147825	 0.229822
H	-1.900413437	 0.0449568375	 0.3489868097	 0.274985
H	-0.742525935	-3.9074263641	 0.6824406943	 0.131341
H	 1.5422383194	-3.4991405913	 1.4101923065	 0.123268
H	 0.9712877525	-0.7927160414	 2.2848171892	 0.141959
H	 2.5103145558	-1.3163796697	 1.5806268897	 0.136919
