22
gdb 113264	3.88048	0.82374	0.78816	3.6205	84.15	-0.2434	0.0315	0.2749	1564.5924	0.192463	-404.371092	-404.360659	-404.359715	-404.406875	37.98	
C	 0.0100092811	 1.5281638367	-0.2308423578	-0.369491
C	 0.0165693012	 0.0684916131	 0.2392710963	-0.207638
C	-1.3562262795	-0.5674265266	 0.1516315671	-0.049145
C	-1.8601427501	-1.209101757	-1.1207162326	-0.294065
C	-1.5831129897	-2.06348437	 0.0933756441	 0.326489
C	-0.4408663364	-3.0614463005	 0.0764930714	-0.452541
N	-2.745126871	-2.519270761	 0.8224616414	-0.325396
C	-3.5856622424	-3.4888180145	 0.3666140901	 0.149908
O	-3.5126224907	-4.028916245	-0.7160260726	-0.324212
H	 1.0076942117	 1.9717444466	-0.1580468226	 0.111972
H	-0.3194302547	 1.6035117978	-1.2721798182	 0.121973
H	-0.6703704114	 2.1360991839	 0.3756802066	 0.113823
H	 0.7323672245	-0.5010215767	-0.3634177304	 0.100038
H	 0.3813540449	 0.0192543548	 1.2739604162	 0.095909
H	-2.1179098769	-0.0315528135	 0.716300599	 0.077237
H	-2.8925925659	-1.062372488	-1.4121729335	 0.123049
H	-1.166375899	-1.3013609788	-1.9503919395	 0.113656
H	 0.4044608892	-2.69839068	-0.5124110243	 0.117085
H	-0.0833412263	-3.2717543083	 1.0909794272	 0.107915
H	-0.7863958306	-3.9980873112	-0.3696196896	 0.150193
H	-2.8538774189	-2.2217024406	 1.7803573083	 0.243019
H	-4.3738962991	-3.7270555614	 1.1109874534	 0.070224
