16
gdb 107868	2.73311	1.51079	1.16123	3.9833	69.51	-0.2486	-0.017	0.2316	1052.6403	0.123535	-437.785288	-437.777534	-437.77659	-437.817941	29.134	
O	-0.0703562791	 1.4141004055	 0.1588569032	-0.418677
C	-0.0129553537	 0.0041819428	 0.0105961177	-0.225703
C	-1.4304424029	-0.4960255633	-0.0251146604	 0.355807
C	-2.5710279922	-0.1934560625	-0.9889546945	-0.226237
N	-3.2602566267	-1.1557317742	-0.018191035	-0.158605
C	-1.9332196792	-1.9823862115	 0.0741747153	-0.232656
C	-1.978413998	-1.8713436248	 1.5923975519	 0.494827
O	-1.709047341	-2.4937750428	 2.5716782172	-0.323232
C	-2.4687125856	-0.4985110602	 1.1615893853	-0.204833
H	 0.8286927392	 1.7556859446	 0.1631516971	 0.295325
H	 0.5006070137	-0.2856873932	-0.9205237152	 0.096306
H	 0.5212032387	-0.4761497281	 0.8466833221	 0.103487
H	-2.9972896618	 0.8128799664	-0.983132371	 0.121399
H	-2.5035893818	-0.5803064756	-2.0106210401	 0.10753
H	-1.7368402802	-2.8031367193	-0.6138630635	 0.104078
H	-2.8684375893	 0.3600413361	 1.6965959499	 0.111184
