19
gdb 61246	3.3793	0.83442	0.78389	5.9838	76.96	-0.2635	0.0325	0.2959	1508.8894	0.157942	-419.193896	-419.183906	-419.182962	-419.229728	35.511	
C	 0.3414654721	 1.6407219364	-0.3326429779	-0.39815
C	 0.1403728484	 0.1744335611	-0.0373857271	 0.000888
N	 1.3427021802	-0.6744848708	 0.0616988728	-0.34099
C	 0.4931843919	-0.4867056625	 1.2480343801	-0.063861
C	 1.1222582477	 0.2263173999	 2.4285362382	 0.139282
O	 0.1453151062	 0.6972665686	 3.3368645701	-0.419639
C	 2.1570226406	-0.7010781556	 3.1087538585	-0.368449
C	 2.8280063053	-0.0702231791	 4.2411843155	 0.267695
N	 3.3650721795	 0.4289322004	 5.1339975846	-0.304722
H	 1.2572689715	 2.0198959203	 0.1251318228	 0.133435
H	 0.4223462552	 1.8009582915	-1.4127386881	 0.123753
H	-0.5035250371	 2.2306617624	 0.0366681169	 0.129298
H	-0.7164989679	-0.2651862258	-0.5472815226	 0.088659
H	 1.1845022402	-1.5859415894	-0.3581237726	 0.235507
H	-0.142372684	-1.3241045166	 1.5466477956	 0.074563
H	 1.6479290125	 1.1188366452	 2.0821587731	 0.117175
H	-0.367113616	-0.0543635614	 3.6557840413	 0.282019
H	 1.6630849444	-1.6176120691	 3.4578380083	 0.133493
H	 2.9022350294	-1.0005667957	 2.3642184903	 0.170045
