22
gdb 122943	5.1549	0.51797	0.49868	4.3392	82.42	-0.2414	0.0316	0.273	2227.4957	0.191997	-441.497749	-441.486529	-441.485585	-441.535941	37.723	
C	-0.0191771017	 1.4002153495	 0.107458614	-0.230099
O	-0.0061338227	-0.0056512004	 0.1732260777	-0.229647
C	-1.2803337596	-0.5763559807	-0.014314154	-0.045762
C	-1.1459344598	-2.0915755414	 0.0682552225	-0.203735
C	-2.4996616225	-2.7986784837	-0.0844775165	-0.182575
N	-2.4169824064	-4.2474164917	-0.0315710207	-0.027678
C	-2.1280651188	-4.8920204329	 1.2380540274	-0.349175
C	-2.6304027573	-5.0107320643	-1.1420054649	 0.152054
O	-2.5805874527	-6.2218526792	-1.1902345542	-0.342689
H	 1.0057260453	 1.7445619839	 0.2644948993	 0.129795
H	-0.3691497825	 1.7609786029	-0.872917461	 0.104676
H	-0.6651458341	 1.8404845938	 0.8838830805	 0.103886
H	-1.9838731795	-0.2091148262	 0.7546579015	 0.084704
H	-1.6965438077	-0.2780429051	-0.9933575308	 0.085589
H	-0.4616383699	-2.4372267549	-0.7141156435	 0.117892
H	-0.6873848568	-2.3451168253	 1.0298631459	 0.116365
H	-3.1903372562	-2.4529335643	 0.6979521109	 0.108338
H	-2.9505020453	-2.5269358758	-1.0458352231	 0.117304
H	-2.8368482083	-4.5587245528	 2.0056852192	 0.121763
H	-2.2249308834	-5.9678086118	 1.0914379689	 0.169558
H	-1.1125479092	-4.6696151266	 1.5842430585	 0.130664
H	-2.8656866008	-4.3849080528	-2.0258969178	 0.068772
