19
gdb 36201	3.33062	1.18614	1.0452	3.3261	78.55	-0.2275	0.0273	0.2548	1190.5198	0.160379	-382.044703	-382.036399	-382.035455	-382.078542	31.081	
N	-0.0897549679	-1.1611859189	 0.1509972153	-0.308514
C	-0.0595632755	-0.0058674188	 0.1457384099	 0.261317
C	 0.0185366525	 1.4537988524	 0.1328026581	-0.424134
C	 1.4470664484	 1.9471034695	-0.0967119468	 0.385624
C	 2.445653422	 1.8100635727	 1.0786641946	-0.305087
C	 2.6398027173	 3.3470418469	 0.9757407646	-0.169104
N	 1.628386779	 3.4543567146	-0.1263368028	-0.166277
C	 2.2440917378	 3.3461854655	-1.4895177577	-0.169105
C	 2.027551688	 1.8091741617	-1.5255092755	-0.305083
H	-0.6389448446	 1.8418124616	-0.6533718114	 0.152886
H	-0.3598095849	 1.8422656848	 1.0850909887	 0.152886
H	 1.9956663837	 1.4670629369	 2.0132981092	 0.114659
H	 3.3248455812	 1.1952812006	 0.8749637749	 0.115693
H	 2.3367883484	 3.9117143429	 1.8619679363	 0.111299
H	 3.6420351224	 3.6793738477	 0.68498634	 0.105645
H	 1.6789336342	 3.9103536163	-2.2367667657	 0.111299
H	 3.2869628374	 3.6785277568	-1.5272338513	 0.105643
H	 2.926339353	 1.1943685341	-1.6068849541	 0.115694
H	 1.3076093876	 1.4656835726	-2.2720857464	 0.114659
