17
gdb 54562	3.17062	1.57235	1.20053	3.1127	72.77	-0.2241	0.0134	0.2375	1023.1778	0.136555	-417.93848	-417.930577	-417.929633	-417.97158	29.895	
N	 0.1120360127	 1.145666092	-0.6424632866	-0.533028
C	-0.0121903405	 0.0508942453	 0.1596192247	 0.267492
O	 0.8705366447	-0.3273433292	 0.9095050122	-0.367525
C	-1.3317605539	-0.6675806737	 0.0527842227	 0.231937
C	-2.5960763411	-0.4362105329	-0.7746837593	-0.269907
N	-3.0003020265	-1.6837374098	 0.0026014099	-0.165646
C	-1.5418410107	-2.2117232943	-0.0956123933	-0.028739
C	-1.4833451461	-2.4859260026	 1.4088673582	-0.257693
C	-2.2241846505	-1.1572518629	 1.241977106	-0.028723
H	 0.9718916824	 1.6694836598	-0.6170786559	 0.263267
H	-0.624886786	 1.4454072749	-1.2558945611	 0.264733
H	-3.2154076697	 0.4377576413	-0.5437744184	 0.10247
H	-2.54529086	-0.5978029147	-1.8572866759	 0.102436
H	-1.2344823131	-2.828161071	-0.9423205983	 0.088232
H	-2.086507061	-3.3256566456	 1.7631477991	 0.105215
H	-0.4991420073	-2.4372932349	 1.8726487882	 0.137241
H	-2.7244357133	-0.5257162415	 1.9783769979	 0.088237
