20
gdb 97156	3.35878	1.26402	1.09505	2.9405	81.48	-0.2395	0.0312	0.2707	1186.2636	0.172213	-403.152246	-403.143761	-403.142816	-403.185783	32.034	
C	 0.1519929318	 1.398091859	 0.0435207236	-0.315359
N	 0.0414740072	-0.0414824605	-0.1435839344	-0.302323
C	-1.0677318625	-0.5969877197	 0.0994697947	 0.393017
C	-1.2576809759	-2.0834366796	-0.0984439983	-0.311221
C	-2.1687397284	-2.7140489575	 0.9400134844	-0.027957
C	-2.2145173922	-2.1744828885	 2.3512673077	-0.297216
C	-3.3266369796	-1.8634934236	 1.3807238124	-0.035978
C	-3.4084120013	-0.4974038146	 0.7364665198	-0.098955
O	-2.1310671672	 0.1261554136	 0.5715980905	-0.258824
H	 1.1025876445	 1.7389540386	-0.3745450918	 0.112631
H	-0.6647777846	 1.9521192265	-0.4367523561	 0.114703
H	 0.1354805198	 1.6649070776	 1.1087368104	 0.117037
H	-1.693003364	-2.2511300785	-1.0943761965	 0.119446
H	-0.2623483588	-2.5323881208	-0.1116031204	 0.135482
H	-2.3347274407	-3.7791354564	 0.8133285099	 0.089165
H	-2.4287893138	-2.8737886024	 3.1513810828	 0.113094
H	-1.5308796034	-1.378507311	 2.6256800416	 0.133567
H	-4.2932776306	-2.3313883963	 1.5412833687	 0.090766
H	-3.9063551155	-0.5726266271	-0.2414764476	 0.108062
H	-3.9840330049	 0.2041653315	 1.3480481686	 0.120865
