23
gdb 119150	1.90373	1.32746	1.03252	2.8384	82.6	-0.2465	0.0705	0.317	1334.9186	0.203813	-425.404998	-425.394477	-425.393532	-425.44053	38.96	
C	-0.1150905633	 1.3775336803	-0.012140292	-0.229916
O	-0.1693494668	-0.0294538482	-0.0839819959	-0.244302
C	 0.7283771692	-0.5781377744	-1.0427093188	-0.149119
C	 0.6441946331	-2.0853627298	-0.9941113376	 0.339705
C	-0.3859314318	-2.7533090227	-1.8695136242	-0.299249
C	 1.0734534217	-2.8248027703	-2.2400050382	-0.323854
C	 0.9166152354	-2.736766827	 0.3622709074	 0.071717
C	 2.2577802918	-2.3225155808	 0.9790512328	-0.404969
O	-0.1528923284	-2.5117663379	 1.2717318522	-0.447225
H	 0.887841628	 1.7326414477	 0.2704085168	 0.109885
H	-0.3858419986	 1.8388256066	-0.9740148102	 0.110492
H	-0.8324819145	 1.6958352401	 0.7475210947	 0.133037
H	 0.4685875099	-0.2144019721	-2.0500861207	 0.086535
H	 1.7517104125	-0.2306249458	-0.8265246157	 0.093981
H	-0.8654515738	-3.6448208955	-1.4813083321	 0.123552
H	-1.0351873019	-2.1227265644	-2.4674922421	 0.110227
H	 1.4180313869	-2.2457357836	-3.0910253531	 0.10769
H	 1.5934900882	-3.7681777693	-2.1114380242	 0.114503
H	 0.9351801254	-3.8230324463	 0.2032957415	 0.070612
H	 2.2693383607	-1.2533550498	 1.214600099	 0.112946
H	 2.413942284	-2.8685259967	 1.9130313856	 0.120875
H	 3.0934371371	-2.5376163034	 0.3038911503	 0.106582
H	-0.3769675047	-1.5747574265	 1.1957808746	 0.286296
