17
gdb 98636	3.38952	0.9859	0.85596	1.3021	69.01	-0.2624	-0.0352	0.2272	1357.8222	0.133665	-459.010662	-459.00156	-459.000615	-459.046078	31.905	
C	-0.3382810161	 1.4045833316	-0.8106440721	-0.382703
C	-0.9414379926	 0.0263144303	-0.5551971794	-0.28721
C	-0.6168223953	-0.5204547828	 0.819268556	 0.349818
O	 0.0710321119	 0.0573554589	 1.6284759872	-0.300421
C	-1.2129976503	-1.8689045137	 1.2104130607	 0.037
C	-2.612563243	-1.8338182774	 1.8680762957	-0.422177
C	-3.0225397297	-2.6544552929	 0.6449820906	 0.443984
O	-3.9987831402	-3.1671256834	 0.2094374802	-0.300824
O	-1.7597412895	-2.6431014594	 0.0927175127	-0.243438
H	-0.5848429728	 1.7499635764	-1.817935131	 0.117338
H	-0.7135151271	 2.1372235462	-0.0914142679	 0.131542
H	 0.749512774	 1.378392009	-0.7092047836	 0.13585
H	-2.0344505984	 0.034662705	-0.6720913484	 0.12926
H	-0.6006729071	-0.7138596969	-1.2912488278	 0.147151
H	-0.4666795626	-2.4503453286	 1.7547302285	 0.129582
H	-2.7083721872	-2.3540803483	 2.8214904111	 0.160039
H	-3.0904569841	-0.8548179742	 1.9359704575	 0.155209
