10
gdb 3837	5.79353	3.10629	2.08471	4.8366	52.72	-0.2536	-0.0741	0.1795	563.4841	0.069073	-351.639205	-351.633977	-351.633032	-351.668318	19.059	
N	-0.0522270155	 1.2571943553	 0.2099572035	-0.471815
C	-0.0595477385	 0.0242819571	-0.0840004013	 0.397829
N	-1.2486024809	-0.7027560909	-0.1972491797	-0.241237
C	-1.1229698806	-1.9634933511	-0.0161929601	 0.108646
N	 0.0904817706	-2.5542234922	 0.2213281074	-0.23877
N	 1.2491852092	-1.9050679531	-0.1786509123	-0.034961
N	 1.1782211504	-0.673296593	-0.3613182569	-0.192487
H	 0.913794806	 1.5916332239	 0.2050620886	 0.235163
H	-1.9822355265	-2.6303657646	-0.0726703018	 0.151955
H	 0.1973985757	-3.5573633116	 0.2314995425	 0.285677
