19
gdb 22883	3.17119	1.1973	0.9194	2.4949	86.02	-0.1807	-0.0109	0.1698	1281.2532	0.158496	-419.18091	-419.171549	-419.170604	-419.214862	34.587	
C	 0.0634977534	 1.6886464124	 0.116600553	-0.386983
C	 0.1518731929	 0.1700530858	-0.0193993284	-0.052307
N	 0.9916539402	-0.2640129785	-1.153920722	-0.052059
C	 0.4249939262	-0.3108837359	-2.4833119894	-0.335561
C	 1.8614048738	-1.2288371961	-0.7009789171	 0.006156
C	 1.8332885512	-1.4098331374	 0.6408923568	-0.286315
C	 0.8170380922	-0.5239389021	 1.1701530603	 0.385836
N	 0.4486292114	-0.2510762789	 2.367156571	-0.273521
O	 1.2091784152	-0.9892098998	 3.3026433226	-0.4008
H	 1.0635955016	 2.1201577136	 0.2090920203	 0.126611
H	-0.435553936	 2.1407416713	-0.7464618077	 0.107593
H	-0.5031023102	 1.9350088637	 1.0178295586	 0.142283
H	-0.8595385052	-0.2438985032	-0.1595041643	 0.097738
H	 0.0748422679	 0.682308384	-2.7797507996	 0.133438
H	 1.194387723	-0.6213775247	-3.1957249217	 0.131499
H	-0.4228066895	-1.0113521054	-2.563094977	 0.115704
H	 2.4975220556	-1.72915496	-1.4221203789	 0.122203
H	 2.4854036528	-2.035354702	 1.2258654574	 0.11837
H	 0.8347003336	-0.6942374268	 4.138540986	 0.300116
