16
gdb 9714	3.23787	1.74144	1.5893	1.1301	71.94	-0.2479	0.0074	0.2553	887.3043	0.129458	-346.575629	-346.567772	-346.566827	-346.607648	29.898	
O	-0.0773014864	 1.4036340652	 0.0193473969	-0.461454
C	 0.0245170236	-0.0253517372	 0.0191637695	 0.223022
C	-1.4190600688	-0.5980815975	-0.0853108949	-0.256129
C	-1.3555096232	-1.751149312	-1.1129430375	-0.258738
C	-0.060138401	-1.491764564	-1.8416533492	-0.057731
C	 0.6881411749	-0.574623859	-1.2361768965	-0.118539
C	 0.7431111648	-0.4728814655	 1.2195947451	 0.303453
C	 1.3651657581	-0.815041483	 2.1908068584	-0.511162
H	 0.7658751988	 1.7587467033	 0.320825165	 0.281402
H	-1.8140301396	-0.8986061694	 0.8858632624	 0.111313
H	-2.0373141077	 0.2188634836	-0.4657204261	 0.125961
H	-1.3318480236	-2.7330314183	-0.6218936789	 0.115837
H	-2.2228170149	-1.7635396678	-1.7823660602	 0.108556
H	 0.2203677416	-2.0278673555	-2.7420353046	 0.098978
H	 1.6745785487	-0.2417678995	-1.5377035335	 0.095702
H	 1.9035577247	-1.1254828135	 3.0521078142	 0.199529
