21
gdb 42060	1.9925	1.8508	1.11203	0.5289	96.13	-0.2028	-0.0415	0.1613	1158.4733	0.185757	-349.962548	-349.954512	-349.953568	-349.994799	32.321	
C	-0.1287032719	 1.5755196264	 0.0122107195	-0.185882
C	 1.2826406417	 2.2066673532	 0.0003148751	-0.257245
C	 2.0339321787	 1.8373337826	 1.2441651267	-0.05884
C	 2.8799719366	 0.8137631825	 1.4345087537	-0.077743
C	 3.418218402	-0.2088860802	 0.5381457551	-0.082595
C	 3.0206717965	-0.8217144014	-0.601303105	-0.082667
C	 1.8494497711	-0.775510793	-1.4760116926	-0.077845
C	 0.5622236195	-0.4670097549	-1.2579346181	-0.058768
C	-0.0759065226	 0.030353213	 0.0043620729	-0.257252
H	-0.6739268368	 1.9183018707	 0.8992862504	 0.094831
H	-0.6931112289	 1.9254507703	-0.8599486491	 0.094824
H	 1.8234257405	 1.8768481279	-0.890321027	 0.120843
H	 1.1875813674	 3.2965372931	-0.0647894915	 0.09605
H	 1.8172609893	 2.4535900215	 2.1158606083	 0.085289
H	 3.3091408792	 0.7419782362	 2.4336070946	 0.083848
H	 4.3779292579	-0.5756136444	 0.9024013088	 0.088541
H	 3.7638844479	-1.5195352895	-0.9871900127	 0.088559
H	 2.0838589176	-1.1171026708	-2.483933485	 0.083869
H	-0.1027067656	-0.5317162516	-2.1183137795	 0.085282
H	 0.4746762526	-0.3213506083	 0.880497791	 0.120844
H	-1.0954228024	-0.3637873934	 0.0840056242	 0.096056
