21
gdb 71764	3.06944	1.78423	1.5581	0.049	84.04	-0.2387	0.0891	0.3277	964.4916	0.18613	-349.969155	-349.962252	-349.961307	-349.999822	29.823	
C	-0.0290636532	 1.4947535628	 0.0012540136	-0.489193
C	-0.0040451895	-0.0146250768	-0.0354330256	 0.336863
C	 0.9752582546	-0.7018369181	-0.9845374207	-0.288366
C	 0.4366418975	-2.1142555407	-1.1517271829	-0.063837
C	 0.0854890746	-2.8690701537	 0.1105186253	-0.062266
C	 0.312191312	-2.143388843	 1.4289161109	-0.243186
C	-0.3416260221	-0.7836233131	 1.2263023815	-0.105137
C	-1.2774738112	-0.8453085827	 0.0277128288	-0.10696
C	-1.0049559866	-2.1610367393	-0.6760030004	-0.069985
H	 0.9269398159	 1.9024736127	 0.3518171696	 0.114038
H	-0.2228423772	 1.9143317532	-0.9931797933	 0.112365
H	-0.809397082	 1.8624613693	 0.675621197	 0.112395
H	 0.9833885543	-0.1816160669	-1.9510156255	 0.092314
H	 2.0045659129	-0.6846235744	-0.602274743	 0.094553
H	 0.7527297573	-2.6938992528	-2.0124975235	 0.075799
H	 0.167221839	-3.9505754981	 0.0877057192	 0.075874
H	-0.1787319349	-2.6812639108	 2.2490562152	 0.096268
H	 1.3764022621	-2.0641318443	 1.6859355557	 0.096363
H	-0.6088630061	-0.1997969888	 2.1017938667	 0.072277
H	-2.2642590406	-0.3994466515	 0.029485887	 0.073486
H	-1.7860347866	-2.6884535026	-1.2076533257	 0.076337
