20
gdb 110407	3.24876	1.17484	1.0847	2.8289	78.46	-0.2364	0.0704	0.3068	1212.1559	0.17122	-403.088596	-403.080062	-403.079118	-403.121819	32.685	
C	 0.1117283222	 1.456287994	 0.3339585425	-0.497025
C	 0.1409637528	-0.0052203728	 0.0093768861	 0.341221
C	-0.0368591191	-0.6502172048	-1.3572218574	-0.2938
C	-0.4099166448	-1.905539338	-0.5487809439	-0.051893
C	 0.8511379486	-2.3601326609	 0.2180399754	 0.045209
C	 2.1419104792	-2.7218218603	-0.4932405843	-0.117636
O	 3.1022977176	-3.0187669393	 0.5126472641	-0.42224
C	 0.6845441269	-1.040155648	 0.9489451956	-0.096097
N	-0.7968625439	-0.9917727432	 0.6617985876	-0.202433
H	 1.0321269623	 1.949489744	 0.0009025484	 0.120184
H	-0.7350757424	 1.9498796625	-0.1545798204	 0.123025
H	 0.0156529833	 1.6117031682	 1.4128838469	 0.130101
H	-0.9183383441	-0.2360994108	-1.8559626478	 0.106918
H	 0.797587477	-0.6872020251	-2.065529585	 0.091278
H	-1.1322967505	-2.6281844344	-0.9240023204	 0.078979
H	 0.5824458569	-3.1753579611	 0.8984744779	 0.093844
H	 1.9683870936	-3.5900323226	-1.1512971573	 0.084468
H	 2.4812956062	-1.8900693406	-1.1276032807	 0.085564
H	 3.9406931438	-3.2085225683	 0.0818002887	 0.287515
H	 1.0713858342	-0.7716640985	 1.9255529341	 0.092819
