18
gdb 8704	2.33368	1.73226	1.3391	3.9618	63.97	-0.2527	-0.0284	0.2244	1013.0645	0.150199	-422.07944	-422.069756	-422.068812	-422.114042	34.28	
C	 0.6060038248	-0.6444921041	 1.3624769518	-0.422168
C	 0.133888256	 0.0265761196	 0.0675259208	-0.210553
C	 0.8177412919	-0.4630290197	-1.224422107	 0.224402
O	 2.233054146	-0.2415148886	-1.215308937	-0.479533
C	 0.5460746561	-1.9424761255	-1.5512353388	-0.082651
O	 1.2610052646	-2.3288106459	-2.7065720503	-0.428124
C	 0.3007442986	 0.3897275436	-2.3890309845	 0.16392
O	-0.8582246016	 0.4379734121	-2.7033763335	-0.262877
H	 0.4004862075	-1.7182257359	 1.3774424478	 0.133291
H	 1.680263054	-0.5032198686	 1.5348221836	 0.110083
H	 0.0939704736	-0.1995828269	 2.22042657	 0.132117
H	-0.9439789982	-0.1132312184	-0.0632354442	 0.129657
H	 0.2986234023	 1.1079507926	 0.1450043165	 0.112356
H	 2.5871238603	-0.5792412245	-0.385900111	 0.288724
H	 0.8111083464	-2.5719039723	-0.6865061744	 0.080057
H	-0.5191427959	-2.0775576484	-1.7601501193	 0.130568
H	 2.1510310504	-1.9708445648	-2.5927591312	 0.284904
H	 1.0883034331	 0.9801993156	-2.9043742392	 0.095827
