16
gdb 55557	4.06472	0.94101	0.82637	5.1731	68.45	-0.2522	0.001	0.2533	1371.8717	0.12439	-471.243669	-471.23465	-471.233706	-471.27873	31.955	
N	 0.2422576947	 1.0100533287	 0.7881583797	-0.568552
C	 0.1500082018	-0.1449859781	 0.0241821445	 0.467513
O	 1.064304874	-0.6024707628	-0.6123406239	-0.334575
N	-1.1155206237	-0.7443018817	 0.1533718205	-0.41394
C	-1.6113953093	-1.7965246136	-0.6117046069	 0.461962
O	-1.1386032066	-2.1995525528	-1.6415023367	-0.327337
N	-2.8167125031	-2.2723811911	-0.0295661645	-0.162442
C	-3.2391107024	-3.6127000773	-0.3954896342	-0.207935
C	-2.7233121145	-3.3449433904	 0.9760388828	-0.239546
H	 1.0908859736	 1.5253868794	 0.607738798	 0.267503
H	-0.5806231314	 1.5864123499	 0.8825912949	 0.253195
H	-1.7097659931	-0.4443080982	 0.9106421662	 0.258399
H	-4.3058669643	-3.7291758203	-0.5586672055	 0.126101
H	-2.5930790763	-4.1478376331	-1.0845213542	 0.152195
H	-1.7310408809	-3.7169868467	 1.2178612191	 0.14112
H	-3.4029780484	-3.255616042	 1.8183501699	 0.12634
