23
gdb 117678	2.12771	1.19821	0.99312	2.1272	82.33	-0.2504	0.0798	0.3302	1372.3708	0.202	-425.402919	-425.392055	-425.391111	-425.439251	39.445	
C	 0.2364934035	 1.5438657119	-0.0421560633	-0.382075
C	-0.1051291646	 0.067490781	 0.0880412073	-0.044793
O	 0.8382145568	-0.5119287665	 0.9699277578	-0.29188
C	 0.8282601224	-1.9278614404	 1.146734459	 0.327257
C	-0.5740865835	-2.4639449119	 1.4765554786	-0.428862
C	 1.4251160292	-2.6311615706	-0.0843851271	-0.424212
C	 1.7350897739	-2.1988878559	 2.3455563775	 0.087605
C	 2.662508108	-1.2077775613	 2.8991573016	-0.17998
O	 1.4325558825	-1.5250179528	 3.5620671891	-0.250682
H	 1.2410485911	 1.6720913558	-0.455368357	 0.122032
H	-0.4787966796	 2.0440074617	-0.7021884436	 0.112556
H	 0.2044608235	 2.0293954071	 0.9373200911	 0.129515
H	-1.1274223444	-0.0477884806	 0.4759882573	 0.09433
H	-0.074597125	-0.4145735763	-0.9010504749	 0.085575
H	-1.2567026527	-2.3688935188	 0.6276455073	 0.113329
H	-0.5174822778	-3.5255279662	 1.736629536	 0.114604
H	-0.9866326842	-1.9229356738	 2.3318777876	 0.141246
H	 2.4187444454	-2.2305890038	-0.3044629678	 0.123092
H	 1.5141588675	-3.7084702163	 0.0875774033	 0.115374
H	 0.7931596821	-2.4920243514	-0.9659218304	 0.118028
H	 1.9743460305	-3.256868954	 2.4723946235	 0.083663
H	 3.5652194471	-1.5430543057	 3.4087012043	 0.105092
H	 2.6996904583	-0.2191931314	 2.4526416128	 0.129187
