21
gdb 65143	3.85384	0.9166	0.90907	2.9832	83.13	-0.2377	-0.016	0.2218	1385.0453	0.180985	-387.090073	-387.080954	-387.08001	-387.124409	34.975	
C	-0.024661703	 1.5345681778	 0.2144347865	-0.481498
C	 0.0058666485	 0.025139708	 0.0556519714	 0.378877
C	 1.077235105	-0.5528674354	-0.8430439138	-0.306052
C	 1.1858171609	-0.7083039213	 0.6551292898	-0.306052
C	-1.3224311686	-0.7052380124	 0.0761909579	-0.045361
C	-2.2988742965	-0.497568144	 1.2832388576	-0.370263
C	-3.4417985748	-0.3807924902	 0.2635320703	 0.404625
O	-4.6342335712	-0.4397080152	 0.3438950975	-0.291064
C	-2.4580148452	-0.2700716224	-0.9110444895	-0.370273
H	 0.9898585587	 1.9428315867	 0.183413326	 0.118232
H	-0.5930661396	 2.0203697489	-0.586418281	 0.119162
H	-0.4660292735	 1.8381087346	 1.1702076345	 0.119161
H	 0.8348892799	-1.4320334373	-1.4309604797	 0.109901
H	 1.7556426167	 0.1351591031	-1.3362785882	 0.110655
H	 1.9377423869	-0.1255348164	 1.1765579813	 0.110654
H	 1.0168814815	-1.6925035455	 1.0795341475	 0.109903
H	-1.1303057105	-1.7752095605	-0.0486980252	 0.076899
H	-2.3843896723	-1.2946812793	 2.0257130996	 0.126371
H	-2.1441342322	 0.4501783207	 1.8100982797	 0.129875
H	-2.3660851397	 0.7674001605	-1.2500879806	 0.129874
H	-2.6604765311	-0.9001616803	-1.7805097316	 0.126374
