19
gdb 99124	4.04111	0.81221	0.71818	3.0668	73.54	-0.2677	0.0037	0.2714	1587.3299	0.156776	-460.177981	-460.168071	-460.167127	-460.214389	34.923	
C	 0.1373458475	 1.5816295043	-0.0732976661	-0.401739
C	 0.0595926398	 0.0747796749	 0.0387595135	-0.041749
C	 1.3267840312	-0.7612908131	 0.0831180382	-0.313669
C	 0.4518792146	-0.6374141284	 1.2960958135	 0.128762
O	 0.9109896649	 0.185983163	 2.3606269695	-0.238649
C	 1.3679440068	-0.4417590668	 3.4515216653	 0.413508
O	 1.4044266974	-1.6394327359	 3.6050547494	-0.369026
C	 1.8376855469	 0.5329486144	 4.5166600587	-0.145579
O	 2.2947725436	-0.152827838	 5.6468006303	-0.419327
H	 0.980474502	 1.9790546699	 0.4968084863	 0.126985
H	 0.2598014114	 1.8842770333	-1.1181607393	 0.122069
H	-0.7738827657	 2.0532073033	 0.3094236426	 0.122942
H	-0.7822710943	-0.3729203484	-0.4829148537	 0.09639
H	 1.3654548591	-1.7155743946	-0.4298849891	 0.123835
H	 2.2660224702	-0.2185337583	 0.1069147471	 0.123949
H	-0.1080001795	-1.4955741323	 1.6457823778	 0.125153
H	 2.6281081775	 1.16302293	 4.0812352184	 0.123405
H	 1.0012067218	 1.2037892571	 4.763575866	 0.125781
H	 2.1863779146	-1.0934522645	 5.4410758817	 0.29696
