13
gdb 130723	3.21574	1.25046	0.97669	2.8265	63.47	-0.2444	-0.0074	0.237	1125.838	0.091147	-448.970036	-448.962343	-448.961399	-449.003418	27.008	
O	-0.080225165	-0.0419035737	-0.3421504108	-0.423241
C	-0.0671109917	 1.1514809219	-0.1300907884	 0.49278
N	-1.0846770558	 2.068993937	-0.03882179	-0.313003
N	-0.6642027896	 3.3541376353	 0.2164064141	-0.20518
C	 0.6249441975	 3.2578313105	 0.2823992408	 0.053831
N	 1.0611126563	 1.9683369021	 0.0834679162	-0.124217
C	 2.4011526347	 1.4292987717	 0.0631806685	-0.298232
C	 3.1319956913	 1.6685435873	 1.3131530444	 0.268366
N	 3.7173669895	 1.8803782005	 2.2855154224	-0.289143
H	-2.0650489179	 1.8672457809	-0.1287270368	 0.290103
H	 1.286126916	 4.0864117243	 0.4821226937	 0.170481
H	 2.285372456	 0.3521315045	-0.1038984951	 0.20364
H	 2.9825175186	 1.8387185478	-0.7710010191	 0.173817
