23
gdb 91427	2.81892	1.45426	1.16673	0.3346	90.35	-0.2293	0.021	0.2503	1171.5591	0.208859	-351.156583	-351.148553	-351.147609	-351.188633	33.242	
C	 0.291896491	 1.6112598196	 0.0239792086	-0.405571
C	 0.0306428013	 0.0961075894	 0.0077978871	-0.020696
C	 0.5334449918	-0.4999377193	-1.3301432911	-0.200002
C	 0.5553187557	-2.0326015612	-1.4768451076	-0.010624
C	-0.4162978835	-2.8006749335	-0.5333632483	-0.2354
C	 0.7571822118	-2.9459846574	 0.4835399765	-0.04264
C	 1.7269591497	-2.7221241396	-0.7221325389	-0.214887
C	 0.8438977949	-1.8315632788	 1.4913436535	-0.090106
C	 0.5663580158	-0.5440849344	 1.2748975439	-0.034938
H	 1.3674388969	 1.8217260506	 0.0387030561	 0.116409
H	-0.1319676613	 2.0943545086	-0.8622381011	 0.108519
H	-0.1525876983	 2.080523978	 0.9077270621	 0.110178
H	-1.0625030735	-0.0334560037	 0.0245583489	 0.089994
H	-0.1010556367	-0.0778124209	-2.1197488398	 0.090452
H	 1.5465641616	-0.1222788097	-1.5264355668	 0.093626
H	 0.4797855832	-2.2838002935	-2.5389125885	 0.060263
H	-1.3234598866	-2.2975087651	-0.1918242226	 0.096926
H	-0.6926031011	-3.7720593134	-0.9531704171	 0.091587
H	 0.8356379917	-3.9126811223	 0.9867683807	 0.058192
H	 2.0094921451	-3.6677510557	-1.1948047267	 0.090393
H	 2.6261938945	-2.1307938892	-0.5308524544	 0.091015
H	 1.2002088835	-2.1128769747	 2.4801503139	 0.079863
H	 0.6936034928	 0.1437649062	 2.1096845318	 0.077449
