17
gdb 76160	2.15442	1.47778	1.20491	3.3124	70.66	-0.2464	0.0059	0.2522	1103.0888	0.133495	-455.12405	-455.114205	-455.113261	-455.157999	36.446	
C	-0.019697991	 1.5135917571	-0.0338980544	-0.448066
C	 0.0490393387	 0.0004219509	-0.0763818715	 0.145913
N	-1.0619678783	-0.7318420809	-0.6266729854	-0.539555
C	 1.3724101818	-0.7027468605	-0.29249086	 0.067522
O	 2.5623998342	-0.0043800295	-0.3983707004	-0.428589
C	 0.715301771	-0.73526038	 1.0938912719	 0.177284
O	 1.3416859983	 0.0974238649	 2.0413974459	-0.468705
C	 0.1392700782	-1.9371644704	 1.6331592941	 0.262339
N	-0.275525072	-2.900302459	 2.1227096901	-0.3511
H	 0.8886394577	 1.9661923445	 0.3655608595	 0.129338
H	-0.1688269142	 1.8959820889	-1.0494942921	 0.122904
H	-0.8624070978	 1.843581073	 0.5826151522	 0.124168
H	-1.9260810586	-0.5110369516	-0.1399990949	 0.239037
H	-1.1893555635	-0.4955866685	-1.6061789293	 0.237124
H	 1.3523750459	-1.6089620935	-0.8876582992	 0.131433
H	 2.7043115167	 0.4376887326	 0.4509755966	 0.29175
H	 1.9007728631	-0.4569308881	 2.5995293669	 0.307203
