17
gdb 108766	2.29059	1.30077	0.86634	3.5255	72.61	-0.238	-0.0463	0.1917	1283.8356	0.134862	-458.988964	-458.979995	-458.979051	-459.023114	32.668	
O	 0.1746563511	 1.3307058627	-0.0029566427	-0.404242
C	-0.0136196988	-0.0694527912	 0.0204994276	-0.170067
C	-1.4479699162	-0.4964917193	 0.0504607679	 0.293052
C	-2.5312763609	 0.2882002707	 0.1311630869	-0.306761
C	-3.771105833	-0.5163857505	 0.0937248428	 0.393815
O	-4.9062965444	-0.1218902902	 0.2191558039	-0.329608
C	-3.3440432346	-1.9762948301	-0.1387469317	-0.371582
C	-1.8098413212	-1.9705764763	 0.0009186426	 0.011787
O	-1.1024185739	-2.5698701214	-1.0795992818	-0.433796
H	-0.1504918521	 1.6571759206	-0.8483984424	 0.289832
H	 0.4837166094	-0.5746552354	-0.8210757876	 0.132236
H	 0.4879483442	-0.431834028	 0.9283818345	 0.13221
H	-2.5333119222	 1.3657662248	 0.2289762721	 0.120382
H	-3.8636682494	-2.6470381485	 0.5497590213	 0.124762
H	-3.6133761736	-2.2634486929	-1.1606119567	 0.138743
H	-1.5050819354	-2.44160766	 0.9500365274	 0.087692
H	-1.2479188089	-3.5202755351	-1.0423163941	 0.291545
