19
gdb 11304	5.38499	1.22411	1.04193	4.3265	73.29	-0.2353	0.0306	0.2658	1139.3589	0.166887	-365.109258	-365.101093	-365.100149	-365.142257	29.733	
C	-0.1595096472	 1.5227350424	 0.0088930339	-0.409154
C	 0.1247112309	 0.0242467111	 0.0451611203	 0.02944
C	 0.8816310818	-0.524339222	-1.180907875	-0.232754
C	 1.4351725226	-1.8763321249	-0.7054364204	-0.158562
N	 1.5708783518	-1.6973789565	 0.7443790999	-0.038007
C	 1.0315911525	-0.4207654326	 1.2061628936	-0.172761
C	 2.079803039	-2.6676860979	 1.5381549623	 0.135321
O	 2.4984622208	-3.7372451163	 1.1391767784	-0.343592
H	 0.7700721696	 2.0962273328	-0.0818697648	 0.118586
H	-0.7957538152	 1.781225373	-0.8433490901	 0.121194
H	-0.6715810051	 1.8560327679	 0.9176343505	 0.118942
H	-0.8242259527	-0.5210062546	 0.1340040529	 0.085714
H	 0.247908954	-0.620060485	-2.0658115697	 0.108163
H	 1.704872957	 0.1540238436	-1.435787351	 0.106221
H	 0.7471583938	-2.7041143402	-0.9155039955	 0.120166
H	 2.3976529928	-2.1370285689	-1.1544334399	 0.126527
H	 1.8309398742	 0.3190111005	 1.3665548481	 0.103801
H	 0.4915483793	-0.5382183747	 2.1506425148	 0.116586
H	 2.0736396801	-2.3811006776	 2.6097742917	 0.064169
