13
gdb 18413	3.61269	1.89972	1.57378	2.4274	65.39	-0.2545	0.0025	0.257	816.6726	0.094609	-361.389799	-361.383031	-361.382086	-361.420793	25.761	
N	-0.0568136148	 1.2136504096	-0.0197533932	-0.548273
C	-0.064098146	-0.0348556803	 0.0357553197	 0.458782
O	 0.9929443307	-0.9477213464	 0.1496940401	-0.263894
C	 0.0688700041	-2.0396961263	-0.0374687693	 0.073571
C	-0.9142309584	-2.0965453544	 1.0950353729	-0.251682
C	-0.6083605624	-1.7027185293	 2.4390559881	 0.335428
C	-0.3638066897	-1.3841924791	 3.5715505722	-0.418986
C	-1.1082073705	-1.0997515056	-0.0737231357	-0.221804
H	 0.8911416075	 1.584829137	 0.0600352354	 0.236484
H	 0.3775471044	-2.8588904537	-0.6721926385	 0.132829
H	-1.6068326844	-2.9318441812	 1.005044629	 0.132837
H	-0.1410579598	-1.0949752153	 4.568569744	 0.203161
H	-2.0086970707	-1.0743545149	-0.6685700647	 0.131547
