22
gdb 111507	1.99449	1.84918	1.12333	1.5052	81.58	-0.2233	0.0747	0.298	1169.5312	0.194876	-404.319918	-404.310963	-404.310019	-404.353412	34.266	
C	 0.4348478765	 0.9158205304	 0.6876239733	-0.237634
O	-0.3603798386	 0.257201365	-0.2717007937	-0.239732
C	 0.3923016247	-0.3526641649	-1.3078170214	 0.085495
C	 1.1518970477	-1.6130921924	-0.8736014569	-0.060062
C	 0.5156925499	-2.4791548591	 0.150163054	-0.235394
N	 0.3812653517	-2.8203950919	-1.2679725099	-0.098823
C	-0.8741485319	-2.3330986288	-1.8896384487	-0.182636
C	-0.5804144947	-0.8992818932	-2.378190363	 0.014802
C	-1.8083107824	-0.0379362	-2.6608666291	-0.407717
H	 1.097849961	 0.2196154844	 1.2213817456	 0.111588
H	 1.0563107795	 1.699022408	 0.2253064105	 0.1044
H	-0.2427559202	 1.3815302021	 1.407466647	 0.125625
H	 1.0845493631	 0.3910470276	-1.7311064702	 0.05939
H	 2.2243973781	-1.6574178499	-1.0422428209	 0.086043
H	 1.1242065258	-3.1649766538	 0.7340254352	 0.109581
H	-0.3529160817	-2.077847558	 0.6666178951	 0.122323
H	-1.1421552161	-2.9978137274	-2.7160210275	 0.104075
H	-1.7059375153	-2.3429415927	-1.1734298738	 0.101892
H	 0.0138143561	-0.9928979976	-3.296223655	 0.082031
H	-2.4011152224	 0.1040940005	-1.7546493198	 0.132777
H	-1.5216770513	 0.9517169438	-3.031114897	 0.111911
H	-2.4419433696	-0.5068713021	-3.4208938039	 0.110067
