20
gdb 89261	2.41129	1.88024	1.34962	2.8586	78.54	-0.2262	0.0745	0.3007	1032.728	0.170383	-403.078283	-403.070071	-403.069127	-403.110382	32.812	
C	-0.1892879633	 1.5424001858	-0.120781572	-0.417507
C	 0.0891086648	 0.0631556454	 0.0481079383	 0.147352
O	 1.1615552819	-0.4500897047	-0.8010471283	-0.347741
C	 1.7672176932	-1.1564836294	 0.3018432324	 0.481347
C	 1.9546087617	-2.630602251	 0.0553375198	-0.483137
C	 2.9316044225	-0.4175223644	 1.0295388705	-0.124011
N	 2.6526496004	 1.0301320634	 0.9921217395	-0.31976
C	 1.9546384483	 0.1862570058	 1.989584073	-0.063027
C	 0.7677561975	-0.5333427043	 1.3083843625	-0.169549
H	 0.7042118756	 2.1327768806	 0.0752673493	 0.151775
H	-0.5310189796	 1.7394251991	-1.1425108056	 0.118196
H	-0.9895652766	 1.8480556486	 0.5631877975	 0.103844
H	-0.8280769939	-0.5049679491	-0.169715516	 0.067774
H	 2.6592054931	-2.7863288835	-0.7697137101	 0.129736
H	 2.3562945806	-3.128319685	 0.9444361615	 0.116261
H	 1.0061606196	-3.1041617795	-0.2136286665	 0.124019
H	 3.9415276118	-0.7820514676	 1.1819723836	 0.086246
H	 3.4207308364	 1.4887394897	 1.4820639885	 0.230325
H	 2.0570325932	 0.3890299782	 3.0486727412	 0.092686
H	 0.1641855328	-1.1496002081	 1.9743259608	 0.075169
