18
gdb 103394	2.45519	1.47124	1.31079	3.2526	71.29	-0.2398	-0.0194	0.2203	1074.526	0.145823	-439.060431	-439.051429	-439.050485	-439.093996	33.413	
C	-0.0669225108	 1.5492491256	-0.1235999338	-0.405906
C	-0.0944946147	 0.018061375	-0.0353459295	-0.234192
C	 0.6955799254	-0.5180888973	 1.1542834159	 0.292843
O	 0.1681842442	-0.0614208073	 2.3914054611	-0.478864
C	 0.9725857102	-2.0210786256	 1.2736516639	-0.062992
C	 1.8763400724	-2.5041097335	 0.2276128491	-0.261627
N	 2.4969580069	-1.807530829	 1.3984993557	-0.177209
C	 2.247128864	-0.3950944818	 1.1910469563	 0.339358
O	 3.0089497124	 0.5216924323	 1.2396571744	-0.313018
H	 0.9593665789	 1.9239855009	-0.1835068968	 0.144112
H	-0.6090401837	 1.8955923157	-1.0075589988	 0.121184
H	-0.5456685449	 2.0017179036	 0.7505624788	 0.11871
H	-1.127841141	-0.3361234927	 0.0648329053	 0.11177
H	 0.3012761684	-0.4117848677	-0.9622298365	 0.099524
H	 0.4676232852	 0.8450806372	 2.5236146409	 0.299083
H	 0.4669268854	-2.6629753227	 1.9833792968	 0.126543
H	 2.1242479192	-3.5601262452	 0.2108720651	 0.145909
H	 1.9136560024	-2.0211335775	-0.7448587879	 0.134773
