15
gdb 75316	2.58332	1.70275	1.18782	1.4489	72.43	-0.2434	-0.0106	0.2328	1014.1969	0.11496	-412.988985	-412.981358	-412.980413	-413.020907	29.313	
N	 0.0106167405	 1.3212030844	 0.119005178	-0.576316
C	-0.0267492641	-0.0382956383	 0.0013774954	 0.370004
N	-1.08929106	-0.7380623733	-0.1275268819	-0.297016
C	-0.749992805	-2.1617795118	-0.0513376841	-0.159959
C	 0.7726417002	-2.2602039273	 0.0095669689	-0.107272
N	 1.4264000062	-1.6591605222	-1.15912523	-0.350882
C	 1.2510601839	-0.8435368078	 0.0849920568	 0.118847
C	 2.3962395037	-0.3973509908	 0.8179071967	 0.194277
N	 3.3249704791	-0.0025172227	 1.384777548	-0.342139
H	 0.8465466259	 1.7987632622	-0.1781249264	 0.2685
H	-0.8555058347	 1.7970803929	-0.0851723211	 0.267345
H	-1.2048192209	-2.6098675765	 0.8410461896	 0.115858
H	-1.1449039238	-2.6927985093	-0.9246432713	 0.126504
H	 1.2760610543	-3.053182357	 0.5515996493	 0.120925
H	 2.3951669449	-1.9752469724	-1.1977632578	 0.251323
