11
gdb 23635	4.14901	1.86662	1.28742	2.8495	55.34	-0.2516	-0.0532	0.1983	822.6585	0.074157	-438.757706	-438.751875	-438.750931	-438.787861	21.851	
F	 0.0467092267	 0.0594289153	 0.0025129574	-0.053385
C	-0.0183285601	 1.3797013623	 0.0106418263	 0.361804
C	-1.2314899477	 1.9941865644	 0.0306116846	-0.399259
C	-1.2902823545	 3.4356492734	 0.0393859764	 0.442045
O	-2.2651923949	 4.1575672806	 0.0565895885	-0.380789
N	 0.0177931703	 4.0068987083	 0.0245936042	-0.335008
C	 1.1548816684	 3.284447191	 0.0050807235	 0.121543
N	 1.1934090088	 1.9858558312	-0.0025740695	-0.320911
H	-2.1555941473	 1.4337935813	 0.0401445611	 0.136523
H	 0.0473193102	 5.0181295647	 0.0297248867	 0.274844
H	 2.08549361	 3.8454689775	-0.0045777491	 0.152593
