20
gdb 63822	3.08474	1.5001	1.32923	2.5966	77.54	-0.2222	0.0703	0.2925	1038.8361	0.170685	-403.069254	-403.061165	-403.060221	-403.101178	32.967	
C	-0.1153715666	 1.6045691875	-0.0424105755	-0.459352
C	 0.0433809071	 0.0919845919	-0.0263491862	 0.386252
O	-1.240334436	-0.5264656594	-0.1154386625	-0.47202
C	 1.0549225514	-0.6200329968	-1.0033746437	-0.327655
C	 1.5931936944	-1.466079035	 0.190478441	-0.026516
C	 2.8112680622	-0.9395941505	 0.969875346	-0.032237
C	 2.898315331	 0.5257588177	 0.9952201167	-0.241628
N	 1.9324863969	-0.1150464439	 1.9155835684	-0.166596
C	 0.7235485828	-0.6485949999	 1.1654188643	 0.009979
H	 0.8247101231	 2.1406532234	 0.0977700219	 0.12412
H	-0.5416725592	 1.928018048	-1.0008846042	 0.105318
H	-0.803074229	 1.9081968662	 0.7522998198	 0.132982
H	-1.6248904188	-0.2790627011	-0.9641175641	 0.273807
H	 0.5389638739	-1.2062127687	-1.7674682789	 0.098212
H	 1.7909798643	 0.0237762653	-1.4922664132	 0.098839
H	 1.514884384	-2.5484988817	 0.1137601905	 0.077061
H	 3.6026195267	-1.5732220285	 1.3591866077	 0.094272
H	 3.7284475369	 0.9621203675	 1.5437693865	 0.121475
H	 2.5740239635	 1.1226540332	 0.1517217421	 0.112711
H	 0.0257932614	-1.0984924053	 1.8704793033	 0.090976
