25
gdb 59643	3.28776	0.93976	0.77667	1.5634	89.25	-0.2372	0.0809	0.3181	1580.9719	0.228397	-389.51485	-389.504475	-389.503531	-389.550456	38.753	
C	 0.0111057586	 1.5583925488	-0.034995358	-0.394491
C	 0.0637616157	 0.025502964	 0.053204802	 0.016458
C	 0.7601684669	-0.4109359612	 1.3499877204	-0.392474
C	-1.3368229439	-0.5937049737	-0.0772400825	 0.022201
C	-2.0590240721	-0.2545885912	-1.4001283474	-0.083835
O	-2.8831067562	-1.3659294607	-1.7394509933	-0.279372
C	-2.7388757138	-2.4061014422	-0.7677114327	 0.153117
C	-2.8678702703	-3.751443128	-1.4640062522	-0.397429
C	-1.3944285911	-2.1311343741	-0.0891401612	-0.254848
H	 1.0150721395	 1.9884539504	 0.0421245281	 0.110848
H	-0.4240241965	 1.9005732625	-0.978946402	 0.118441
H	-0.5906566636	 1.975876662	 0.7813550582	 0.112224
H	 0.6616868426	-0.3427590395	-0.7941616821	 0.070552
H	 0.1883244764	-0.0881260193	 2.2286086378	 0.111121
H	 0.8734579307	-1.4974342658	 1.4063309276	 0.115242
H	 1.758500986	 0.032602507	 1.425809549	 0.110165
H	-1.9510579404	-0.2316639829	 0.7596972213	 0.068668
H	-2.6765091954	 0.6484876772	-1.3193648871	 0.096859
H	-1.3341639028	-0.0904550816	-2.2121693061	 0.089847
H	-3.5453808188	-2.3108271284	-0.0194950297	 0.060297
H	-2.0707898421	-3.8780105685	-2.2034404277	 0.116384
H	-2.8066032084	-4.5687085383	-0.7379718676	 0.109921
H	-3.8288083769	-3.8238321733	-1.9812396136	 0.124098
H	-0.5780831915	-2.5383008513	-0.7004694285	 0.095268
H	-1.3290712627	-2.578396062	 0.9056577574	 0.100738
