17
gdb 79803	2.63739	1.75367	1.38057	1.8743	75.41	-0.2117	-0.0362	0.1755	967.1997	0.134837	-421.713402	-421.705556	-421.704612	-421.745248	31.001	
O	 0.0522006065	 1.3993165725	-0.4948395479	-0.418849
C	 0.1525891172	 0.0481967245	-0.1535276075	 0.104407
C	-1.1667195408	-0.7720704446	-0.0455495304	-0.186186
C	-1.7260096977	-1.5266022972	-1.346499269	-0.08734
C	-1.3282700998	-1.1515795229	-2.7856484798	-0.269899
C	 0.077075763	-0.6229685413	-2.515664597	-0.071145
C	 0.4764262488	-0.9811420783	-1.2781040976	-0.131036
C	-0.515993826	-1.9868057265	-0.6552066345	 0.369055
O	-0.2697267848	-3.2567887972	-0.1810368192	-0.465684
H	 0.8548028228	 1.8502009921	-0.2170578202	 0.288835
H	 0.7165527303	-0.0773984373	 0.7825677465	 0.071259
H	-1.8284185527	-0.7359529091	 0.8163973696	 0.091226
H	-2.6804381039	-2.0075743155	-1.141295281	 0.086237
H	-1.4354860551	-2.019707004	-3.4511519277	 0.114725
H	-1.9163934725	-0.3368334979	-3.2248977656	 0.116059
H	 0.3947105142	 0.3092788735	-2.9728378913	 0.103028
H	 0.4810009904	-3.2167530308	 0.4220430826	 0.285307
