16
gdb 93447	2.4412	1.61758	1.19422	3.6464	66.91	-0.2877	-0.0138	0.2739	1049.5559	0.124719	-475.080798	-475.072687	-475.071743	-475.113986	29.588	
C	 0.1614753658	 1.5676053898	 0.05758944	-0.408957
C	 0.0096402911	 0.035899903	 0.0088522403	-0.089179
C	 0.6929954278	-0.5865614532	-1.2018669583	-0.096382
O	 2.1198937042	-0.4258143951	-1.1124711274	-0.245977
C	 2.7453191922	-0.6808046933	 0.0454525185	 0.480723
O	 3.930192817	-0.719505144	 0.1406393775	-0.340101
O	 1.9572068732	-0.9100269337	 1.1499110904	-0.263697
C	 0.5985696172	-0.6188518591	 1.2280598103	 0.40638
N	-0.0540612839	-0.8870921582	 2.2687421775	-0.496877
H	 1.2117853856	 1.8716838843	 0.0662858692	 0.144373
H	-0.3122246882	 2.0189579166	-0.8193658503	 0.127812
H	-0.3190925234	 1.9648666281	 0.95421443	 0.147834
H	-1.0522848135	-0.2211816292	-0.005479205	 0.125302
H	 0.461744163	-1.6549495323	-1.2857352367	 0.133221
H	 0.4092690964	-0.0921058652	-2.1324754806	 0.136875
H	 0.5463592655	-1.3108430985	 2.9789006047	 0.238649
