22
gdb 65513	3.42835	1.16206	1.11989	1.5987	85.26	-0.2281	0.0813	0.3093	1220.0299	0.194764	-367.149543	-367.140964	-367.14002	-367.182719	34.093	
C	 0.0821778253	 1.6275626163	-0.141420068	-0.482541
C	 0.0581237141	 0.1027617113	-0.0660678252	 0.309145
C	 1.1794018856	-0.6671915245	-0.8379449073	-0.218604
N	 1.6243587775	-1.4064021729	 0.3979663995	-0.128539
C	 2.1147361792	-0.364297842	 1.3162076451	-0.258613
C	 0.6561211498	-0.5452408981	 1.1971069387	-0.053252
C	-1.2999225603	-0.5196465012	-0.3578738728	-0.001036
C	-2.6102179039	 0.0675709426	 0.1060287341	-0.287698
C	-2.2779151211	 0.0274786758	-1.3670415968	-0.29298
H	 1.0713321373	 2.0154345447	 0.1150170489	 0.114787
H	-0.1516926016	 1.9809588999	-1.1510341	 0.119771
H	-0.6346721183	 2.0808663081	 0.550964631	 0.120151
H	 0.7994755369	-1.3646051262	-1.5873217262	 0.109376
H	 1.971879163	-0.0574795984	-1.2867559104	 0.093604
H	 2.5943251245	-0.7717321847	 2.2015819795	 0.119108
H	 2.6064187316	 0.5147860071	 0.9046565694	 0.107401
H	 0.0598735656	-0.9654253488	 2.0026056558	 0.089202
H	-1.2587453779	-1.6057106452	-0.3131665978	 0.092711
H	-3.3660664531	-0.6109475663	 0.4860299553	 0.111543
H	-2.6065090854	 1.036387445	 0.5926928356	 0.112629
H	-2.0540193969	 0.9703541005	-1.8530647376	 0.112106
H	-2.8062482519	-0.6776880429	-1.9992063908	 0.111731
