17
gdb 60870	2.61472	1.40174	1.03608	4.1473	72.94	-0.2651	-0.0546	0.2105	1143.9896	0.134574	-417.999163	-417.989955	-417.989011	-418.033502	32.85	
C	-0.1208827972	 1.601371297	 0.4364237769	-0.412314
C	-0.0200480383	 0.1363481624	-0.0587821181	-0.178155
C	 1.085877805	-0.516132938	 0.748038826	 0.147281
O	 0.9441265086	-1.2778739101	 1.6734977274	-0.251746
C	-1.3788607525	-0.5730242225	-0.0391478161	 0.146171
C	-1.5191689734	-2.0588046221	 0.0736837529	-0.270079
N	-1.9439884202	-1.1958724776	 1.177346029	-0.329706
C	-2.3632600341	 0.1177696364	-0.855073574	 0.292029
N	-3.1086171816	 0.6799581712	-1.5371091397	-0.346471
H	 0.8536483124	 2.0968184962	 0.391791911	 0.130225
H	-0.8171811919	 2.1612671761	-0.1914954801	 0.165712
H	-0.4784099719	 1.6349048618	 1.4694854426	 0.145684
H	 0.3301174368	 0.1658585714	-1.0997197554	 0.119536
H	 2.1029211679	-0.1818788406	 0.4456523258	 0.104687
H	-2.3214071616	-2.5496571026	-0.4680873546	 0.141791
H	-0.6085291501	-2.6367924988	 0.1906709597	 0.136542
H	-1.2123006578	-1.2105319001	 1.8858447168	 0.258812
