23
gdb 107675	2.93487	1.21423	1.0186	1.3203	85.13	-0.2567	0.0749	0.3316	1273.4349	0.207953	-388.293553	-388.284707	-388.283763	-388.326813	34.942	
O	 0.02482196	 1.3264702251	 0.4958675033	-0.423654
C	 0.0002312905	 0.0194343037	-0.0683288065	-0.157127
C	-1.4135425174	-0.5051229826	-0.0028272859	 0.368414
C	-1.8356342123	-1.1587025618	 1.2884615545	-0.316023
C	-1.5850066599	-2.0140248783	 0.0661502874	-0.075284
C	-2.7501637534	-2.7068684857	-0.6438114303	-0.222039
C	-3.4933615946	-1.801827132	-1.6401715818	-0.181072
C	-3.7488083616	-0.4088232808	-1.0559454352	-0.216973
C	-2.4224826962	 0.3180471496	-0.7951228227	-0.253692
H	 0.8958846551	 1.7029595057	 0.3403946647	 0.284963
H	 0.3369038677	 0.0421940627	-1.1185479196	 0.079832
H	 0.6746116236	-0.6589790538	 0.4792180365	 0.076453
H	-1.1178283015	-1.1884001951	 2.1016514451	 0.105496
H	-2.8645163844	-1.0407023712	 1.6143463841	 0.105085
H	-0.6630527595	-2.5891081913	 0.0874840896	 0.074335
H	-2.3775918183	-3.59340297	-1.1680105641	 0.093902
H	-3.4617947265	-3.0776709653	 0.1052040404	 0.098143
H	-2.8942647817	-1.6929312525	-2.5545502858	 0.090633
H	-4.4340001866	-2.2780824534	-1.9381630948	 0.08795
H	-4.3575879437	 0.1893207551	-1.7427224785	 0.091067
H	-4.3311432284	-0.495811519	-0.1291072181	 0.094503
H	-2.5913699947	 1.2736072569	-0.2880447332	 0.108805
H	-1.971114706	 0.5639883739	-1.7674545189	 0.086282
