18
gdb 6919	3.95578	1.19989	1.13386	3.9786	69.62	-0.2693	0.0031	0.2724	1123.5464	0.151132	-384.954629	-384.945685	-384.944741	-384.988387	31.988	
C	-0.0074761332	 1.479890374	 0.3424091795	-0.458363
C	 0.0545848543	-0.0176892184	 0.1143114489	 0.301662
C	-1.2276540407	-0.6406595923	-0.4041525007	-0.450909
C	 1.3728484445	-0.6120186812	-0.3516714646	-0.353264
C	 0.8973941268	-0.8595988379	 1.0455725551	 0.07428
O	 1.656621206	-0.2401938745	 2.0691097401	-0.183926
C	 1.0657329478	-0.1478585854	 3.2791073189	 0.174295
O	 1.6032625737	 0.3517446729	 4.2206509016	-0.272891
H	 0.9290298604	 1.8679087446	 0.7489141138	 0.137514
H	-0.2115931974	 2.0013924616	-0.5991595697	 0.121416
H	-0.8107738786	 1.7379749385	 1.0427403427	 0.117818
H	-1.4875367079	-0.233006235	-1.3877532647	 0.123703
H	-1.1358491863	-1.7262893789	-0.510675257	 0.115024
H	-2.0663845534	-0.438387558	 0.2719829803	 0.119362
H	 1.3660822569	-1.4421633679	-1.0497743053	 0.117912
H	 2.2153343468	 0.062836906	-0.456103568	 0.132328
H	 0.5487310501	-1.8536653176	 1.3137971738	 0.105519
H	 0.0497964103	-0.5875942106	 3.2950991553	 0.078517
