14
gdb 44286	3.57143	1.91507	1.50413	4.3953	64.07	-0.2527	-0.0047	0.248	835.2801	0.103197	-436.639642	-436.633865	-436.632921	-436.669721	23.793	
O	-0.0169116805	-0.0396445791	-0.2234467247	-0.342538
C	-0.0136271255	 1.1395871566	 0.0012822055	 0.464244
O	-1.1758548575	 1.8232366196	 0.142761033	-0.231285
C	-1.0589890222	 3.1990941108	 0.4019581892	 0.115713
C	-0.0416736465	 3.7985773549	 1.3294395389	-0.161728
C	 0.0104683381	 4.0567998334	-0.1817160524	-0.065362
N	 1.348127203	 3.3707232676	-0.3098630446	-0.151584
C	 1.2958478226	 3.078732218	 1.1445067685	-0.045938
C	 1.2188630579	 1.9519764482	 0.166432761	-0.205261
H	-2.0461023036	 3.6444561957	 0.4450491616	 0.133676
H	-0.2913137726	 4.4452878287	 2.1592035949	 0.113693
H	-0.1638197044	 4.9384248844	-0.7845569759	 0.121482
H	 2.1601127624	 3.2208866195	 1.7830210434	 0.120965
H	 2.1261038889	 1.3858701915	-0.0096124382	 0.133923
