14
gdb 4642	6.68263	1.26253	1.06899	6.7056	72.26	-0.2258	-0.0039	0.2219	1046.7888	0.10908	-341.651497	-341.644215	-341.643271	-341.68313	26.554	
C	-0.035025319	 1.5012159654	 0.050589565	-0.503312
C	-0.0007009649	 0.0119811048	-0.042765722	 0.338552
C	-0.0329326895	-0.8264969431	-1.1285083415	-0.339091
C	 0.0268362242	-2.1726433533	-0.6417513574	 0.175486
C	 0.0939354328	-2.1058258717	 0.737969127	-0.169739
N	 0.076488162	-0.7871356892	 1.0810166968	-0.291846
C	 0.0193874159	-3.358619733	-1.4149262764	 0.194699
N	 0.0127154916	-4.3238682492	-2.0561852153	-0.353837
H	 0.8648471471	 1.9040122338	 0.5309941535	 0.13477
H	-0.0977045501	 1.9334791112	-0.9500814522	 0.147884
H	-0.9009258951	 1.8576021098	 0.6215510908	 0.13472
H	-0.0924761858	-0.5285268102	-2.1630520651	 0.117137
H	 0.1512789174	-2.8896655986	 1.474618557	 0.145889
H	 0.1146004434	-0.4427755967	 2.0254820099	 0.268689
