16
gdb 34699	4.21785	1.5283	1.45309	1.7534	76.58	-0.2249	0.0321	0.257	918.9203	0.125103	-363.475359	-363.468855	-363.467911	-363.506101	26.927	
C	-0.0048196996	-1.279596284	-0.0493284011	-0.434869
C	-0.0161137667	-0.0774578421	-0.0172859742	 0.339002
C	-0.0277104704	 1.368050272	 0.0439227291	-0.175883
C	-0.2637565924	 2.1028591148	 1.3891577231	-0.091859
C	 0.919997158	 1.6929905362	 2.2945802164	-0.077507
C	 1.7280341834	 2.9455949829	 1.9839768604	-0.120254
C	 2.0197396687	 1.6802652031	 1.2329626079	-0.01389
N	 1.3144575022	 2.0910967048	-0.0223765599	-0.165685
C	 0.7067500237	 3.2067759506	 0.8558875923	-0.013909
H	 0.0052112266	-2.3408458992	-0.0858832776	 0.196462
H	-0.6584872788	 1.7877949599	-0.7476629896	 0.107176
H	-1.2477999608	 2.273640724	 1.8233111473	 0.075306
H	 0.9289163515	 1.0657181959	 3.1742351012	 0.096679
H	 2.3496341631	 3.5850437662	 2.5942794891	 0.097838
H	 2.8798882195	 1.0254688847	 1.2410587361	 0.098874
H	 0.4251939419	 4.1453375903	 0.3835245095	 0.082519
