18
gdb 35902	3.106	1.41054	1.08264	2.8234	77.9	-0.243	0.0385	0.2815	1123.1275	0.148662	-401.883784	-401.8759	-401.874956	-401.916149	30.911	
C	-0.0023416158	-1.1961265954	-0.0913010289	-0.422475
C	-0.0111530692	 0.0002726789	 0.0107826913	 0.303627
C	 0.0102762067	 1.4596413727	 0.0748929504	-0.046053
O	-0.6989969266	 1.8797778974	 1.230641271	-0.256295
C	-0.6898076425	 3.2911669619	 1.3761435576	-0.066203
C	 0.6984192862	 3.8156242945	 1.757407336	-0.211131
C	 1.7709737116	 3.1955627239	 0.8724417516	-0.041932
N	 2.2200342055	 1.8465681946	 1.2667166959	-0.312948
C	 1.4370090844	 2.0042480472	 0.0428646396	-0.05824
H	 0.0002460077	-2.2556049897	-0.1634552965	 0.195135
H	-0.5019508786	 1.856472648	-0.8221815806	 0.090968
H	-1.0270450764	 3.7646245857	 0.4380533386	 0.085191
H	-1.4264564652	 3.5196776996	 2.1508762972	 0.110055
H	 0.7101220362	 4.9069822184	 1.6604987818	 0.095665
H	 0.9143737439	 3.5715195853	 2.8020479433	 0.122312
H	 2.5233849624	 3.8741556896	 0.4775280649	 0.086946
H	 3.2015244202	 1.7133310887	 1.0398967168	 0.232534
H	 1.9322091295	 1.8803818787	-0.9177947402	 0.092845
