16
gdb 107381	3.32876	1.25667	1.02939	5.4923	64.96	-0.2515	0.0492	0.3007	1134.5565	0.124561	-475.045006	-475.036958	-475.036013	-475.077872	30.193	
O	-0.0543271418	 1.4152732796	 0.2058171802	-0.422969
C	 0.0335541795	 0.021006373	-0.0596290659	-0.165001
C	-1.3644957194	-0.5206624356	-0.0459940861	 0.34215
C	-2.0584834417	-1.0010739442	 1.2216292844	-0.358411
C	-1.7511454883	-1.9654028942	 0.1046412441	 0.032949
O	-2.7726038657	-2.2397429859	-0.8282516768	-0.243466
C	-3.1104847335	-1.0777277978	-1.4965980547	 0.46931
O	-4.022176675	-1.0034893115	-2.2686825931	-0.383466
N	-2.2285714972	-0.09416294	-1.104391028	-0.416506
H	 0.8102266478	 1.8080183515	 0.0525465189	 0.294426
H	 0.4853609287	-0.1688313793	-1.0443947513	 0.103952
H	 0.6360544459	-0.5003750896	 0.7001919816	 0.092196
H	-1.4470176022	-1.08871169	 2.1131211287	 0.127046
H	-3.0905466564	-0.713348634	 1.3879704887	 0.134235
H	-1.0502924286	-2.7825494215	 0.2199763118	 0.122164
H	-2.4549021422	 0.8728726697	-1.2668947326	 0.271393
