17
gdb 119443	3.68326	0.95438	0.85564	3.9274	70.23	-0.244	-0.027	0.2169	1369.5594	0.133183	-458.920599	-458.911763	-458.910819	-458.955059	31.509	
C	-0.2396082578	 1.3381928593	-0.3928137406	-0.224154
O	-0.5041292995	-0.0259705879	-0.633755801	-0.237824
C	-0.988354392	-0.6989399712	 0.5049173041	-0.190489
C	-1.1507494485	-2.1430379501	 0.1521255443	 0.416273
C	-0.1323691457	-3.0934875955	-0.4990742484	-0.415704
C	-1.3611945264	-3.8044958621	-1.1443047545	 0.433023
O	-1.4873611851	-4.6468757816	-1.9801226876	-0.294342
C	-2.3212171843	-2.8496842924	-0.4374314299	-0.172489
O	-1.985517307	-2.9539292883	 0.9681190375	-0.283827
H	 0.135014545	 1.7650116532	-1.3255601259	 0.134956
H	-1.1482769251	 1.8813789727	-0.0908611923	 0.110801
H	 0.5197061634	 1.4723856568	 0.3930731522	 0.110457
H	-0.2830441031	-0.5983385001	 1.348404449	 0.10239
H	-1.9574574583	-0.2956592033	 0.8401244869	 0.107389
H	 0.4839053307	-2.626065862	-1.2716497501	 0.149435
H	 0.4868289197	-3.6728834921	 0.1884401443	 0.131369
H	-3.318989196	-2.5111454353	-0.6902089979	 0.122735
