19
gdb 72517	2.22048	1.8166	1.62478	2.5094	73.94	-0.227	-0.0213	0.2058	970.9612	0.160431	-423.052103	-423.044138	-423.043194	-423.084329	30.877	
C	-0.0049766344	 1.511007998	 0.032065281	-0.485055
C	 0.0286093986	-0.0020418142	 0.0130228453	 0.155496
C	 0.6384504965	-0.6821193842	-1.2473033849	-0.257221
C	 0.1106509296	-2.1618844015	-1.1839692238	-0.23753
C	-0.7366443048	-2.1552729494	 0.0987258474	-0.001676
O	 0.1409041386	-2.0458281087	 1.2264207267	-0.28812
C	 0.6604637514	-0.6916054514	 1.2372193049	-0.097753
C	-1.323746452	-0.7379588702	 0.0381863347	 0.40689
O	-2.4461258685	-0.3226365726	-0.0042440522	-0.327303
H	 1.0036917234	 1.9351411067	-0.0107858811	 0.117534
H	-0.569940465	 1.8933136288	-0.8234758068	 0.131019
H	-0.4909018608	 1.8807948115	 0.9403686063	 0.128444
H	 0.2952353333	-0.1765205489	-2.154503424	 0.110696
H	 1.7307459035	-0.6271460334	-1.231500007	 0.108562
H	-0.4930663627	-2.4137928659	-2.0611281378	 0.112921
H	 0.9160746657	-2.8946208274	-1.0994421051	 0.117756
H	-1.4242447491	-2.9842337782	 0.2523634226	 0.095409
H	 1.7562393949	-0.722784498	 1.1860247532	 0.102297
H	 0.3684404818	-0.2021775112	 2.1754882807	 0.107631
