21
gdb 116507	2.93275	1.20886	0.94461	0.606	75.73	-0.2455	0.0867	0.3321	1292.2527	0.182812	-461.348484	-461.339372	-461.338427	-461.38262	33.639	
C	 0.0627645995	 1.405604646	-0.0458202426	-0.240893
O	 0.0366023496	-0.0100912344	-0.0004761117	-0.239106
C	 0.660718899	-0.5537770235	 1.1161311198	 0.230388
C	 0.4476411296	-2.0684313678	 1.0703973876	-0.25916
C	 0.6437455196	-2.7699003157	 2.4295735054	-0.085317
O	 1.5059846454	-2.1065426581	 3.3413857131	-0.247203
C	 2.7832838074	-1.7462379617	 2.8458893583	-0.087366
C	 2.7650536496	-0.3385394335	 2.2514341839	-0.071703
O	 2.0469992163	-0.239678358	 1.03832972	-0.261944
H	 1.0861338286	 1.7876643961	-0.1214110791	 0.127539
H	-0.5044322294	 1.7032767093	-0.9302296034	 0.125681
H	-0.4128206435	 1.8402940371	 0.8468770671	 0.101855
H	 0.2512553674	-0.1122923791	 2.0450183013	 0.060477
H	-0.5651643129	-2.2699209359	 0.7085587164	 0.114631
H	 1.1418264499	-2.4556697108	 0.3187236807	 0.117613
H	-0.3106790067	-2.8306055619	 2.9613812785	 0.113472
H	 0.9899699795	-3.801722727	 2.2609726486	 0.09409
H	 3.4705039512	-1.7606410009	 3.7009185108	 0.105901
H	 3.1494790404	-2.4718701353	 2.1048031491	 0.09888
H	 2.3492918432	 0.3458999014	 3.0086853164	 0.096709
H	 3.7869849864	-0.0173628062	 2.0220374599	 0.105458
