14
gdb 29887	3.33331	1.47208	1.02773	7.6884	66.79	-0.2466	-0.0335	0.2131	1073.7223	0.10259	-470.072079	-470.064354	-470.06341	-470.104909	27.823	
C	-0.0240482965	 1.4938662741	 0.0472863873	-0.342502
N	-0.0069842076	 0.0348371069	 0.0280601188	-0.124354
C	-0.0616398821	-0.6974065071	-1.1431659832	 0.098913
N	-0.0492241551	-1.9697199247	-1.2178166192	-0.305271
C	 0.0266711912	-2.7182161237	-0.0040585726	 0.387123
O	 0.0403088437	-3.9214386913	-0.0237485362	-0.336594
N	 0.0846630971	-1.9988827135	 1.2091788146	-0.414555
C	 0.0659461282	-0.7194861062	 1.1711531703	 0.507958
O	 0.1182782837	 0.0172253794	 2.2878717587	-0.402918
H	 0.8858016423	 1.8858047394	 0.5075564767	 0.162334
H	-0.0849382434	 1.8467097476	-0.9836442601	 0.147919
H	-0.8876531298	 1.8637199617	 0.6046718088	 0.162323
H	-0.1187594044	-0.0891278712	-2.0454832921	 0.138544
H	 0.1667966227	-0.6196678613	 3.0168645783	 0.32108
