22
gdb 84880	2.09364	1.74062	1.32211	2.0077	81.68	-0.2423	0.0299	0.2722	1102.45	0.194525	-404.373579	-404.364377	-404.363433	-404.406651	35.93	
C	-0.1051431496	 1.5434419786	-0.0921911892	-0.404622
C	 0.044329026	 0.017464483	-0.0057726253	 0.037293
N	 0.6867340289	-0.4526102674	-1.2391414736	-0.272494
C	 1.8824381442	-0.8584182751	-1.1956760077	 0.114633
O	 2.7297610219	-0.933910664	-0.1417356273	-0.227516
C	 2.2606467818	-0.3192907725	 1.0661108529	-0.085202
C	 0.7536225015	-0.5175492879	 1.2726425526	 0.207398
C	 0.3256347402	 0.2248934117	 2.5471669613	-0.43573
C	 0.441674435	-2.017769496	 1.4384328378	-0.417382
H	 0.8603498794	 2.051328919	 0.0048641282	 0.112632
H	-0.5160896181	 1.804756249	-1.070638607	 0.131635
H	-0.7779695881	 1.927260548	 0.6790361551	 0.113624
H	-0.9702656948	-0.4031436674	-0.0188684305	 0.080221
H	 2.3757027527	-1.2352798573	-2.0904108358	 0.12104
H	 2.8399437914	-0.7740164688	 1.8746396979	 0.112627
H	 2.5097922276	 0.7492514014	 1.0272673958	 0.107688
H	 0.6134888992	 1.2799233281	 2.5310070569	 0.117759
H	-0.7603425459	 0.1755365545	 2.6800320932	 0.119423
H	 0.7850673185	-0.2323568796	 3.4307838724	 0.112116
H	 0.9956300039	-2.4401854427	 2.2838804161	 0.108014
H	-0.6259312557	-2.1650787417	 1.6318587789	 0.113814
H	 0.7008133	-2.5920917728	 0.5458866075	 0.13303
