20
gdb 22677	4.04915	0.83607	0.71758	2.1252	79.13	-0.2356	0.0152	0.2508	1549.2271	0.170478	-440.25826	-440.248881	-440.247936	-440.292767	34.904	
O	-0.2037949523	 1.4919825435	-0.0202958389	-0.423267
C	-0.0623155599	 0.0838611499	-0.1429150172	-0.097731
C	-1.4113055765	-0.5531585127	 0.1413771642	 0.035704
C	-1.4123166914	-2.0925135099	 0.0274820392	-0.243937
C	-2.6860911636	-2.535447265	 0.7750877233	-0.298826
C	-2.9396826883	-1.4211483124	 1.7703663228	 0.402031
C	-1.9450471856	-0.3005177581	 1.5671691505	-0.285548
N	-3.8580654605	-1.3543869812	 2.6476169596	-0.230929
O	-4.6549808174	-2.5185357451	 2.6325078013	-0.398907
H	 0.6535213404	 1.8974290459	-0.1786355686	 0.287482
H	 0.2758889277	-0.1960708942	-1.1539449186	 0.085414
H	 0.6825753465	-0.3056431288	 0.5720150559	 0.081608
H	-2.134034746	-0.1440979187	-0.5770515273	 0.086645
H	-1.3819750662	-2.442341557	-1.0079571685	 0.100482
H	-0.524347112	-2.4956795287	 0.5316036743	 0.099474
H	-3.5485156826	-2.6139367632	 0.1015649029	 0.127902
H	-2.5983758657	-3.5071781001	 1.2689688634	 0.126422
H	-1.1202489548	-0.4012636961	 2.288062965	 0.110484
H	-2.3803229021	 0.6885195438	 1.7124097317	 0.131713
H	-5.2988558597	-2.3289612919	 3.322664885	 0.303781
