14
gdb 34192	4.42742	1.41498	1.2786	3.1379	70.34	-0.2741	-0.0412	0.2328	948.0208	0.103227	-395.694187	-395.687826	-395.686882	-395.724904	25.116	
N	 0.0510366989	-1.1423394535	-0.0510671363	-0.337252
C	 0.0248249501	 0.0137392145	-0.0589208429	 0.208959
C	-0.0596469646	 1.4397947938	-0.0600870222	 0.213993
C	-1.2465930391	 2.277815354	 0.4361705924	-0.283703
C	-0.6422697973	 3.4836373237	-0.3654934016	-0.044542
N	 0.2426642317	 4.1805849921	 0.5831737934	-0.177457
C	 1.2168471087	 3.3847215769	 0.759835802	 0.037385
N	 1.261649826	 2.2043630755	-0.0658450283	-0.173659
C	 0.2674327457	 2.4531446051	-1.1080547805	-0.092082
H	-2.1638199588	 1.9091170788	-0.0265791154	 0.139856
H	-1.3831451289	 2.418924738	 1.5101426715	 0.129975
H	-1.3149608238	 4.1437529895	-0.9046486986	 0.102707
H	 2.0135783297	 3.5339660298	 1.4797128313	 0.147147
H	 0.5202268017	 2.3331750518	-2.1545698648	 0.128672
