18
gdb 110923	2.18619	1.59832	1.11896	3.5221	73.11	-0.2345	0.0238	0.2583	1114.3978	0.147628	-439.056774	-439.048155	-439.047211	-439.091049	31.411	
O	 0.0424440494	 0.9371354277	 0.9719543179	-0.42159
C	 0.080618394	-0.1692312857	 0.0782550144	-0.12271
C	-1.3267041235	-0.6963870603	-0.0422713343	-0.010907
C	-1.707704384	-2.1533230195	-0.199056586	-0.128288
C	-0.8124753627	-3.0819256388	 0.6403773897	-0.194026
N	-1.1377006977	-2.2657225606	 1.8246477528	-0.044213
C	-0.3172345762	-1.9622587793	 2.867267616	 0.133846
O	 0.6892211698	-2.5786528212	 3.1489881992	-0.33199
C	-2.0407956695	-1.3928423997	 1.0829484504	-0.03111
H	 0.9428033572	 1.2543210126	 1.0925130545	 0.291367
H	 0.4423427992	 0.132028942	-0.9173228225	 0.093091
H	 0.7604628855	-0.9479722808	 0.4483299213	 0.109744
H	-1.995351746	-0.0390494066	-0.5942216189	 0.103211
H	-2.3821773885	-2.4928748525	-0.9724212852	 0.104913
H	-1.2115845435	-4.0970181817	 0.7239356207	 0.126073
H	 0.2545338352	-3.1333509326	 0.4059406619	 0.130609
H	-0.698459576	-1.1024235039	 3.4530861397	 0.08002
H	-2.9922373827	-1.081455219	 1.4956706685	 0.111959
