21
gdb 103526	2.32272	1.41552	1.16796	2.4099	83.78	-0.2358	-0.0147	0.2211	1189.9588	0.181323	-387.131203	-387.121745	-387.120801	-387.165505	35.612	
C	 0.1417250587	 1.5722012771	 0.0430565552	-0.404664
C	-0.0203637871	 0.0492356902	 0.0146966225	-0.189006
C	-1.4851640067	-0.4648409852	 0.0158731438	 0.124276
C	-2.2384068571	-0.0268028994	 1.2880371768	-0.425595
C	-2.2388302861	-0.1337190242	-1.2533185826	-0.096693
C	-2.5925211075	-1.2088614853	-1.9591354893	-0.089854
C	-2.1529922182	-2.4939420307	-1.3133253156	-0.378161
C	-1.447374982	-2.012331422	-0.0372247805	 0.378696
O	-0.9389092765	-2.7159042637	 0.7969550153	-0.327261
H	 1.2020749821	 1.8401173331	 0.003524463	 0.118122
H	-0.3486027511	 2.0488390085	-0.8122457465	 0.116097
H	-0.2722850127	 2.011502616	 0.955215668	 0.121586
H	 0.4826639296	-0.3457645319	-0.8766613442	 0.096069
H	 0.4845670737	-0.3989156799	 0.8781345114	 0.116343
H	-2.3294218039	 1.061710393	 1.3403462192	 0.117218
H	-3.2498112636	-0.4442490857	 1.3068784739	 0.117054
H	-1.7078943653	-0.3779899943	 2.178199575	 0.133879
H	-2.4658844175	 0.8886596096	-1.5359802487	 0.098509
H	-3.1397915664	-1.1842930856	-2.8946478163	 0.100233
H	-2.980107271	-3.1682226617	-1.0557091406	 0.136405
H	-1.4607008814	-3.0870286579	-1.9250507199	 0.136746
