16
gdb 18999	4.94361	1.9333	1.67501	3.0934	68.71	-0.2329	-0.0104	0.2226	788.1766	0.132956	-346.587312	-346.581557	-346.580612	-346.617035	23.664	
O	-0.0189553336	 0.0055358491	-0.035058958	-0.328155
C	-0.0194819938	 1.2084399072	-0.0008926947	 0.410447
C	-1.2258238816	 2.1659565543	 0.0147828618	-0.365751
C	-0.4638301231	 3.4849144503	 0.0589793751	-0.008484
C	 0.7927421986	 3.3886393455	-0.8698603878	-0.054917
C	 1.5642898202	 4.3118924245	 0.1009430891	-0.237386
C	 0.7754867321	 3.3358960042	 1.0039143686	-0.054926
C	 1.1560822394	 2.1547257035	 0.0364668916	-0.120093
H	-1.8437840425	 2.0349192256	-0.8798359668	 0.124931
H	-1.8601907167	 1.985161986	 0.8890167037	 0.124914
H	-1.021129547	 4.422353834	 0.0802189371	 0.073432
H	 0.8016589263	 3.3976147314	-1.9615296431	 0.080831
H	 2.653405081	 4.219932549	 0.1083830558	 0.098479
H	 1.2567271816	 5.3620043454	 0.1276746593	 0.094005
H	 0.764290963	 3.2834424008	 2.0943389887	 0.080828
H	 2.1629412961	 1.7403769291	 0.0340576798	 0.081846
