21
gdb 38946	2.96444	1.82624	1.55398	1.4758	80.65	-0.2314	0.0839	0.3154	955.6591	0.187462	-387.092294	-387.085752	-387.084808	-387.122746	28.521	
C	-0.1054592627	 1.5870540842	 0.0640102685	-0.243954
C	 1.432442161	 1.4285857091	-0.0080574313	 0.087887
O	 1.7336578824	 0.8008499276	 1.2496937013	-0.292827
C	 0.7737399811	-0.2933460189	 1.2657232522	 0.116302
C	 1.5188949741	-1.6298544825	 1.1876980269	-0.224073
C	 2.6487066213	-1.5393444969	 0.1496610244	-0.188046
C	 2.1720431004	-0.912123781	-1.1742306369	-0.245473
C	 1.1876044368	 0.2405930869	-0.9912084824	 0.016349
C	-0.0182162284	 0.036390332	-0.0139162142	-0.072904
H	-0.5033516681	 2.0416982402	 0.9744193739	 0.096645
H	-0.551606083	 2.0306906868	-0.8278824962	 0.097031
H	 2.1313646285	 2.2445208198	-0.1896260342	 0.072939
H	 0.1648597009	-0.2186477057	 2.1737486257	 0.067356
H	 1.9331191872	-1.8911753712	 2.1673382894	 0.098625
H	 0.7991029075	-2.4179507368	 0.9277494876	 0.090413
H	 3.4462485661	-0.9238080936	 0.5730654066	 0.116016
H	 3.0736976134	-2.5311017945	-0.0380776853	 0.084602
H	 3.03614215	-0.5828882872	-1.7642054265	 0.095456
H	 1.6661221525	-1.6759362952	-1.7813854007	 0.094212
H	 0.8423292309	 0.6185500042	-1.9574982075	 0.06903
H	-0.8700973418	-0.6016837472	-0.2499879315	 0.064415
