21
gdb 110376	3.69857	1.10368	1.05956	1.0557	82.07	-0.2297	0.0827	0.3124	1252.1482	0.18288	-387.017877	-387.009692	-387.008748	-387.050601	32.209	
C	-0.3386751425	 1.1489538716	 0.1932438829	-0.23579
O	 0.5058044034	 0.0503130966	-0.0821566359	-0.250362
C	 0.9748712631	-0.5761947461	 1.0730510276	 0.104195
C	 0.0768664133	-1.6479681259	 1.6408298696	-0.107178
C	 1.3526427159	-2.002774962	 0.8464903134	-0.10413
C	 1.9561716649	-2.6674674793	 2.1026462726	-0.026475
C	 2.8109054906	-1.8166775831	 3.0930488656	-0.24271
C	 1.5152382804	-1.4555477931	 3.8952284362	-0.24266
C	 0.6672443402	-2.311646319	 2.9028529778	-0.023127
H	 0.1844289343	 1.9272729074	 0.7698572688	 0.104718
H	-0.6448507509	 1.5686887606	-0.7678774659	 0.125986
H	-1.2331678088	 0.8459664653	 0.7562385817	 0.107172
H	 1.5575670588	 0.0836651528	 1.7179648769	 0.080619
H	-0.9579658611	-1.7025637279	 1.3227882521	 0.086305
H	 1.4437032624	-2.3683029945	-0.169502761	 0.092338
H	 2.2542101596	-3.7055587222	 1.9536310636	 0.068351
H	 3.5182167283	-2.4175633069	 3.6697646331	 0.097913
H	 3.3598797145	-0.979455962	 2.6545854727	 0.101889
H	 1.5148786921	-1.853646434	 4.9127866343	 0.097596
H	 1.2594178526	-0.3941102534	 3.9493274727	 0.098319
H	 0.0404653091	-3.0937861249	 3.3323686711	 0.067032
