19
gdb 58504	1.9647	1.35511	1.13315	4.5637	73.48	-0.2362	-0.0128	0.2234	1196.714	0.155438	-460.153705	-460.143597	-460.142653	-460.188597	37.022	
C	 0.7638885236	 0.8661422016	-0.6748659562	-0.420763
C	-0.2419053564	 0.3048685225	 0.3284193199	 0.07216
O	-1.1546831367	-0.6073066237	-0.2701780231	-0.435402
C	 0.4481851895	-0.3919194776	 1.495750592	 0.385767
O	 1.1894626184	 0.5119904863	 2.2737659068	-0.463811
C	-0.1486734443	-1.5721275599	 2.1812353013	-0.373986
C	 1.1444422969	-1.7420874231	 1.3750724021	-0.129318
C	 1.1473549781	-2.5680751469	 0.1415980224	 0.141406
O	 2.1274020475	-3.151316773	-0.260757501	-0.279562
H	 1.3168344189	 0.0573251348	-1.162040904	 0.139349
H	 0.2552687799	 1.4559435581	-1.4461602083	 0.106426
H	 1.477680678	 1.5165112144	-0.1637122383	 0.142827
H	-0.8048383327	 1.1470858869	 0.7699930045	 0.06257
H	-1.4114858307	-0.2536318642	-1.1270950379	 0.290436
H	 0.5706858492	 1.0023148922	 2.8273517553	 0.287389
H	-0.0582410736	-1.6330551939	 3.2598133231	 0.121947
H	-1.0477660936	-2.0000051635	 1.7531739056	 0.144191
H	 2.0674542711	-1.7999125534	 1.9413375309	 0.117461
H	 0.177027327	-2.6308972476	-0.3881437353	 0.09091
