20
gdb 11397	4.98537	1.20682	1.0648	1.0477	77.91	-0.2425	0.0199	0.2624	1180.937	0.176827	-349.009663	-349.001108	-349.000164	-349.042983	31.555	
C	 0.022878594	 1.3830545391	-0.1180594321	-0.235843
O	-0.1252661383	-0.0030418712	 0.0736069297	-0.243815
C	 0.646609768	-0.5260617276	 1.1473797763	 0.107237
C	 0.1456219539	-1.9471024804	 1.4778756616	-0.257408
C	 1.4049084188	-2.7995669606	 1.7836801149	-0.014047
C	 1.3356095444	-4.23589856	 1.2524238492	-0.396162
C	 2.5128375391	-1.9662525625	 1.176610422	-0.061388
C	 2.1112186583	-0.746389385	 0.8283317162	-0.10739
H	 1.0459038694	 1.6636752105	-0.4118573866	 0.103059
H	-0.6582427782	 1.6737690405	-0.9221016952	 0.125082
H	-0.2385499715	 1.9505716749	 0.7897721858	 0.101195
H	 0.5413436034	 0.1543117832	 2.0115287103	 0.062175
H	-0.5893118714	-1.9601428898	 2.2861262232	 0.095788
H	-0.3465715693	-2.324933451	 0.5754884652	 0.117046
H	 1.5580649817	-2.8524503117	 2.8722877012	 0.078704
H	 1.198090416	-4.2422656831	 0.1657426306	 0.119002
H	 2.2534697767	-4.7889216279	 1.4798105698	 0.110199
H	 0.4987081399	-4.7811612992	 1.7014384427	 0.113926
H	 3.524965979	-2.3461864347	 1.0732866153	 0.090115
H	 2.7404481462	 0.0274632065	 0.4032317199	 0.092525
