17
gdb 110658	3.68975	1.4626	1.25163	1.3774	74.11	-0.2374	-0.0461	0.1913	1028.2268	0.136132	-417.889264	-417.881829	-417.880885	-417.921462	28.276	
C	 0.0483032503	 1.2041756278	 0.4473581849	-0.246136
O	-0.0142256318	-0.1083442646	-0.0854021078	-0.223974
C	-1.29147436	-0.6038133702	-0.1664887586	 0.1365
C	-1.4994109182	-2.0777901982	-0.6378896174	-0.129591
C	-1.5739472624	-3.2167178229	 0.3954914341	-0.0462
C	-1.0791752117	-3.09062862	 1.8425685821	-0.185861
N	-1.1830404134	-1.6209468421	 2.0440257414	-0.186195
C	-1.9281701275	-1.2254730555	 1.0915929461	 0.070902
N	-2.667747987	-2.2527042888	 0.2850557513	-0.134618
H	 1.0926057849	 1.5174610588	 0.4002555227	 0.135522
H	-0.565559824	 1.9045424469	-0.138635535	 0.109344
H	-0.2888531609	 1.217131126	 1.491538778	 0.138177
H	-1.9562313724	 0.0404768241	-0.7620654228	 0.097317
H	-1.6139520388	-2.3135420441	-1.6944776678	 0.111609
H	-1.7499088233	-4.2020007517	-0.0320668983	 0.103293
H	-1.7064323171	-3.6997236593	 2.5089743688	 0.121307
H	-0.0341824867	-3.3690766863	 2.0079651182	 0.128603
