22
gdb 14997	3.96693	1.32263	1.06937	1.339	78.2	-0.2412	0.0858	0.327	1177.8341	0.202151	-350.22412	-350.215814	-350.21487	-350.256766	31.929	
C	 0.0728559851	 1.5748958808	-0.0244045595	-0.392151
C	-0.0069007756	 0.0441941419	 0.0132209465	-0.183453
C	-1.4326802405	-0.5274539735	 0.0374447202	 0.033932
C	-1.4352856622	-2.0557378817	-0.1399759	-0.207708
C	-2.8551450118	-2.623506075	-0.0140075735	-0.212446
C	-3.5036377212	-2.1282088844	 1.2796084949	-0.062391
O	-3.4953704562	-0.7134892098	 1.3595912103	-0.247059
C	-2.1834790001	-0.1783585118	 1.3316850035	-0.073175
H	 1.111334729	 1.9096735639	-0.110294873	 0.112736
H	-0.4776450274	 1.9773398852	-0.8821346858	 0.115869
H	-0.3424850158	 2.0323878534	 0.8789579449	 0.120201
H	 0.5105073384	-0.3610540936	-0.8659799091	 0.093367
H	 0.5465486616	-0.3322581336	 0.8848992728	 0.092831
H	-2.0007112423	-0.0853723592	-0.7942873532	 0.072773
H	-0.9927694046	-2.3261247387	-1.1057637787	 0.09109
H	-0.794506713	-2.5048302684	 0.6332815555	 0.090575
H	-3.4653128251	-2.2933270984	-0.8637001476	 0.101846
H	-2.8429382992	-3.7196626208	-0.0277029734	 0.090993
H	-4.5530566834	-2.4311681318	 1.3434901101	 0.102165
H	-2.9747270102	-2.5574435011	 2.1497125829	 0.079544
H	-1.6042213343	-0.548325878	 2.1984443567	 0.076918
H	-2.3016003214	 0.9023017146	 1.4469437255	 0.103542
