19
gdb 63545	2.97385	1.34588	1.22509	2.8363	75.93	-0.2416	0.0732	0.3148	1104.2844	0.157081	-422.964989	-422.956395	-422.95545	-422.997793	33.556	
C	-0.1175376463	 1.5275772733	-0.0023732147	-0.450556
C	-0.0112141546	 0.0206830895	 0.0416354489	 0.345126
O	-1.1572344602	-0.6584639362	-0.4038190533	-0.460933
C	 1.3237600866	-0.6615180214	-0.1999360687	-0.432107
C	 0.6843705769	-0.6645960002	 1.1689683098	 0.3216
C	 1.3005408967	-0.1105803365	 2.4808595895	-0.353687
C	 0.8040848195	-1.3988581896	 3.1661832376	 0.034949
O	-0.6146108114	-1.4511410958	 2.996454296	-0.244507
C	 0.2135858475	-1.8995740341	 1.9132443575	-0.04672
H	 0.7812608754	 2.0037011416	 0.3996810437	 0.119072
H	-0.2456027101	 1.8788818019	-1.0339711576	 0.107444
H	-0.980232871	 1.864960503	 0.580556717	 0.133517
H	-1.2492227612	-0.4933177599	-1.3490395598	 0.279927
H	 1.3053037026	-1.5926797338	-0.7577478534	 0.11291
H	 2.2078227652	-0.0501055968	-0.3562914486	 0.108067
H	 2.390359947	-0.0335076769	 2.4341930292	 0.106944
H	 0.8779765931	 0.8135109236	 2.8833359349	 0.111811
H	 1.2285402712	-1.9266093215	 4.0119058354	 0.103368
H	 0.0529592333	-2.9042515904	 1.5421414866	 0.103777
