21
gdb 109277	2.68405	1.13938	0.87432	2.8297	85.62	-0.2334	-0.0102	0.2232	1388.499	0.182736	-387.137602	-387.128442	-387.127498	-387.172171	34.209	
C	-0.2196897495	 1.5376036754	 0.0661311456	-0.374353
C	 0.0467005739	 0.0217579719	 0.0395807263	-0.267881
C	 0.8079370248	-0.4464443873	-1.1786847822	 0.314011
C	 2.0718895497	-0.8721285307	-1.1045681421	-0.158775
C	 2.8843735156	-1.3500830847	-2.2789152446	-0.261296
C	 1.9933861205	-1.7852489992	-3.4581572184	-0.301224
C	 0.9033644866	-0.7635795895	-3.7174773549	 0.386191
O	 0.6962041663	-0.2786179611	-4.8050418266	-0.310148
C	 0.0659031423	-0.3927876604	-2.4984825802	-0.400002
H	 0.720595649	 2.0971711453	 0.0415340063	 0.121633
H	-0.8241078033	 1.8614199342	-0.7866578631	 0.122335
H	-0.7585827925	 1.8178334177	 0.9763853764	 0.115788
H	 0.6044846648	-0.2599674473	 0.9392714662	 0.101688
H	-0.9159343417	-0.5067810325	 0.0907536206	 0.098715
H	 2.5685979906	-0.8772452019	-0.1363902272	 0.080732
H	 3.5712660062	-0.5565879873	-2.6075914457	 0.12176
H	 3.5261482301	-2.1857762212	-1.9765873806	 0.110086
H	 2.5639735694	-1.9401788485	-4.3762629217	 0.117765
H	 1.5017526229	-2.7314565236	-3.1930551336	 0.119448
H	-0.7932896528	-1.0826744566	-2.4655470312	 0.130049
H	-0.364905703	 0.5968702975	-2.6841130696	 0.133479
