20
gdb 10723	3.27898	1.51304	1.2741	1.9715	70.11	-0.2598	0.0803	0.3401	1047.4446	0.175519	-386.122311	-386.113276	-386.112332	-386.155634	33.898	
C	 0.5478440358	 1.5316771665	-0.1776876675	-0.388787
C	 0.0239666916	 0.1039716906	 0.0645438304	-0.042735
C	 0.1990192241	-0.7469208265	-1.199370434	-0.408095
C	 0.6795626258	-0.495892898	 1.3083045352	 0.36961
C	 0.1423462149	 0.0164326041	 2.6451777228	-0.130872
O	 0.9682185972	-0.353693055	 3.7254431515	-0.420156
C	 1.3678677189	-1.79424484	 1.3170786265	-0.228572
O	 2.1202249931	-0.5663310799	 1.2896783576	-0.292613
H	 1.6240642353	 1.5084466273	-0.373375757	 0.134641
H	 0.0507909734	 1.9792738485	-1.0435480861	 0.112561
H	 0.376462201	 2.1889259924	 0.6794036392	 0.116808
H	-1.0515821434	 0.1656917698	 0.2845650901	 0.077748
H	 1.2602727297	-0.8831054811	-1.4334638024	 0.131333
H	-0.2605937034	-1.734033202	-1.0947332239	 0.11441
H	-0.2674498103	-0.2508155439	-2.0558617828	 0.113551
H	 0.0190086024	 1.1100040451	 2.593949513	 0.093426
H	-0.8501203269	-0.4132177849	 2.8256120384	 0.113632
H	 1.8731243348	-0.2157259559	 3.4125426994	 0.291575
H	 1.4334777046	-2.3444887432	 2.2526733707	 0.125762
H	 1.4357224615	-2.3894104738	 0.4110656289	 0.116773
