13
gdb 2121	3.62739	3.16869	1.77308	4.5164	53.99	-0.2314	-0.088	0.1434	677.7872	0.101832	-344.494043	-344.487816	-344.486872	-344.524385	22.671	
O	 0.0025335436	-0.0115145064	 0.147555219	-0.276527
C	-0.0470292445	 1.1868103418	 0.0958874079	 0.318685
C	-1.2732278476	 2.0846677265	 0.0352850052	-0.325009
C	-0.7721429925	 3.4706669015	 0.4994273623	-0.233147
C	 0.6943841091	 3.5524009527	 0.0197129376	-0.325008
C	 1.2062020137	 2.1216568732	 0.085989007	 0.318682
O	 2.3411887402	 1.7330023879	 0.1291264838	-0.276524
H	-1.601855379	 2.1234562311	-1.0127979102	 0.139834
H	-2.1011430596	 1.6760671534	 0.6180452161	 0.139137
H	-1.3850784738	 4.2882925384	 0.1158100635	 0.117806
H	-0.8052549009	 3.5266576774	 1.5926191188	 0.123102
H	 0.7401678133	 3.870465854	-1.0313430545	 0.139832
H	 1.3278494681	 4.2339359785	 0.5908861436	 0.139136
