25
gdb 109759	2.27909	1.06088	0.84408	1.763	88.94	-0.2549	0.0645	0.3194	1510.3951	0.227038	-389.481316	-389.470049	-389.469104	-389.517625	41.448	
C	-0.0139680464	 1.3691795444	-0.7656502779	-0.388662
C	 0.0982959283	-0.0104672856	-0.0975114799	 0.020099
C	 0.6822616377	 0.1170875852	 1.3182433743	-0.387609
C	-1.2629394377	-0.691904653	-0.0617476011	-0.010907
C	-1.8510030511	-1.4697378769	-1.2206556506	-0.046566
C	-1.1244104461	-1.6801047769	-2.534910276	-0.417245
C	-1.4643544554	-2.1901377584	 0.0629657837	-0.081906
C	-0.3266091578	-3.1840874798	 0.1172830819	-0.075611
O	-0.7323023236	-4.4856289903	-0.2911697581	-0.424815
H	 0.9595082305	 1.8692640526	-0.8047872682	 0.108187
H	-0.3964016107	 1.2896791609	-1.7876720577	 0.114435
H	-0.6976090462	 2.0171241494	-0.2040742275	 0.111248
H	 0.7939735271	-0.613282923	-0.6924173208	 0.06916
H	 0.0214492811	 0.7134921312	 1.9586212565	 0.111375
H	 0.8078809903	-0.8612016471	 1.7918717381	 0.117634
H	 1.6591612099	 0.6118948593	 1.2984686841	 0.10824
H	-1.9888890519	-0.1013383085	 0.4965022658	 0.076787
H	-2.9221902841	-1.3386944363	-1.3553374574	 0.082469
H	-0.0495646214	-1.8303230203	-2.4100891018	 0.122038
H	-1.5192988501	-2.5550677761	-3.0654315016	 0.109817
H	-1.2567317019	-0.8181677314	-3.1981260512	 0.122165
H	-2.2981319672	-2.5001331025	 0.6885018904	 0.086288
H	 0.5366783412	-2.8398986261	-0.469780055	 0.083262
H	 0.0206236662	-3.3022441336	 1.1496537358	 0.109397
H	-1.1221086908	-4.3999216572	-1.1671329858	 0.28072
