20
gdb 70428	2.7761	1.46473	1.26052	2.8436	78.51	-0.2276	0.0736	0.3012	1086.0496	0.171012	-403.082112	-403.07373	-403.072786	-403.11523	32.114	
C	-0.0697670237	 1.5511545573	 0.0155669525	-0.514659
C	 0.1304756743	 0.0677877408	 0.0110128822	 0.262383
N	-0.8368730408	-0.8570720756	 0.6631993791	-0.373492
C	 0.5978996695	-0.8856303656	 1.0557944824	-0.099032
C	 1.2918261477	-1.764991906	 0.0144956038	-0.314263
C	 0.7715478525	-0.7950725601	-1.093368732	 0.290875
C	-0.0487698848	-1.2255789958	-2.3197062856	-0.125674
O	 0.8307431596	-0.5036202067	-3.213409815	-0.278606
C	 1.727258943	-0.1815404129	-2.1341150958	-0.148823
H	 0.8486761189	 2.080465416	-0.258142579	 0.128586
H	-0.8504670364	 1.8505158225	-0.6937726023	 0.134254
H	-0.3694023937	 1.8991526394	 1.0102057569	 0.118629
H	-1.3292062799	-0.3139053294	 1.3734121256	 0.222236
H	 0.8907239969	-0.7072700864	 2.0836884475	 0.09199
H	 2.3828530235	-1.7427655542	 0.0893337537	 0.102039
H	 0.946473385	-2.8011588618	-0.0384241995	 0.107702
H	-0.0447408061	-2.3039712266	-2.5259002462	 0.098173
H	-1.0805390039	-0.857977141	-2.3595293778	 0.10649
H	 1.9177008864	 0.8972201755	-2.0627636667	 0.097721
H	 2.6904326919	-0.7036232594	-2.2275301838	 0.093472
