17
gdb 103226	3.97605	1.24881	1.12543	3.5623	67.34	-0.2278	0.0537	0.2814	1083.266	0.13465	-458.852045	-458.844304	-458.84336	-458.884125	30.551	
O	-0.1039266973	 1.5024374965	-0.0768814552	-0.434313
C	 0.0361690305	 0.0929179465	 0.102006849	-0.161549
C	-1.3681591827	-0.4826881499	 0.0395122715	 0.438813
O	-2.1910289564	 0.150111511	 0.9919039477	-0.497309
C	-2.0030929585	-0.7238103984	-1.3544859799	-0.163602
C	-1.26568794	-2.0889852701	-1.5218491094	 0.075857
O	-2.4743105468	-2.8472706334	-1.8209554732	-0.332856
C	-2.8739959105	-1.8933434238	-0.7928294468	 0.087741
C	-1.539330074	-2.0085252791	 0.0141793655	-0.165523
H	 0.7139378671	 1.9313575242	 0.1891217421	 0.296424
H	 0.6767300435	-0.3450697105	-0.676912692	 0.09494
H	 0.4770602311	-0.1357271625	 1.0832221988	 0.099605
H	-1.9628856325	 1.0880453339	 0.9518352799	 0.286661
H	-2.2745142244	-0.0202785516	-2.1403304997	 0.08677
H	-0.350614638	-2.3352321696	-2.0582832221	 0.09592
H	-3.9024775694	-1.894309954	-0.4405800053	 0.108876
H	-1.2913361916	-2.7512666894	 0.7720876092	 0.083545
