21
gdb 79065	2.11712	1.95109	1.65362	0.3834	85.95	-0.2169	0.0192	0.2361	996.5155	0.183088	-349.935839	-349.927856	-349.926911	-349.967552	32.916	
C	-0.0225058168	 1.612577913	-0.0257128351	-0.418555
C	 0.1067170424	 0.0950889925	-0.0106867156	 0.007898
C	 0.7122589629	-0.6566702341	-1.1893340779	-0.097618
C	 2.2624663271	-0.7642920696	-1.1110452618	-0.083678
C	 3.0043173278	 0.1518887613	-0.2003100857	-0.092572
C	 2.4065692901	 0.1661093404	 0.9955746674	-0.136294
C	 1.1447812966	-0.6692338222	 0.9434044776	 0.262898
C	 0.6103379697	-1.204731537	 2.256207196	-0.502686
C	 1.3822713643	-1.6427151345	-0.2667845391	-0.115195
H	 0.9333712368	 2.0983096574	-0.2346574219	 0.119315
H	-0.7330088504	 1.921895837	-0.8010274217	 0.108789
H	-0.3971801259	 1.9919227318	 0.9322700952	 0.106641
H	-0.8720578188	-0.3543173548	 0.1943844075	 0.072224
H	 0.222231252	-0.8402607962	-2.1392122309	 0.080065
H	 2.7288248957	-1.170983429	-2.0013072022	 0.080554
H	 3.8643798352	 0.737417249	-0.5019350534	 0.093179
H	 2.6664115151	 0.7957173997	 1.8388298302	 0.088981
H	 0.3421975524	-0.3880926538	 2.9365235621	 0.115286
H	-0.2851924099	-1.8161180256	 2.1019484005	 0.112815
H	 1.3579928134	-1.8254764121	 2.7627973317	 0.117364
H	 1.3756199504	-2.726769363	-0.255793503	 0.080589
