19
gdb 84223	3.08016	1.52329	1.31735	3.6587	82.21	-0.2194	-0.0474	0.172	1051.7728	0.158231	-381.942964	-381.934936	-381.933992	-381.974963	32.065	
C	-0.1903353322	 1.5204962453	-0.231738933	-0.375044
C	-0.0196987905	 0.0191744156	-0.0298096742	 0.025472
N	 0.8553877737	-0.4916637877	-1.1343788213	-0.168606
C	 1.6223462304	-1.3339114633	-0.5679919765	 0.126388
N	 3.0050342976	-0.9016430229	-0.3117941471	-0.376234
C	 2.3731957072	-0.7710160907	 1.1267081049	 0.337038
C	 3.319721772	-0.5368710329	 2.2667760448	-0.493673
C	 0.8123081594	-0.4052890624	 1.2062610195	-0.097748
C	 1.3121222916	-1.774969148	 0.90004959	-0.224092
H	 0.7855712498	 2.0031559565	-0.3298910958	 0.131762
H	-0.7661481224	 1.7248793055	-1.1381580461	 0.125835
H	-0.7184223264	 1.9572407331	 0.6236368031	 0.10489
H	-1.009951304	-0.4607791171	 0.0214359105	 0.080713
H	 3.6159264278	-1.7174161292	-0.180349712	 0.216384
H	 3.8085453393	 0.4373531396	 2.1722968422	 0.144605
H	 2.7861538269	-0.5639836588	 3.2211786663	 0.131512
H	 4.0993154539	-1.3071678034	 2.2935995824	 0.123641
H	 0.4818114357	-0.1407088313	 2.2093614472	 0.085564
H	 1.0895958704	-2.745797208	 1.324909925	 0.101592
