20
gdb 54523	3.05747	1.35946	1.10131	2.6703	79.13	-0.2339	-0.014	0.2198	1162.0792	0.171362	-403.160296	-403.151725	-403.150781	-403.193658	32.747	
C	 0.9054562519	 1.1483893488	 0.2596939113	-0.498423
C	-0.184576011	 0.1351234622	-0.0280470825	 0.306456
O	-1.089456129	-0.0793400557	 0.7506278906	-0.305758
C	-0.1213441347	-0.6161360095	-1.3277886894	 0.240183
C	 1.1894379041	-0.9919043934	-1.9537817622	-0.28982
N	 0.4137822985	 0.099776112	-2.5237650421	-0.127589
C	-0.442015037	-0.2932119898	-3.6623880342	-0.149648
C	-1.231793704	-1.5603231181	-3.2590133529	-0.250194
C	-1.3246793053	-1.4624282644	-1.7220375395	-0.278169
H	 1.826102821	 0.6317982888	 0.5558927367	 0.139506
H	 1.1313182511	 1.7364397998	-0.6333810077	 0.157424
H	 0.5892449483	 1.7893429429	 1.0833388722	 0.139401
H	 2.1227625992	-0.6929288465	-1.4864618409	 0.119252
H	 1.2332339108	-1.9476277712	-2.4712838473	 0.117197
H	-1.1209455635	 0.5446740663	-3.851990602	 0.11424
H	 0.1725563532	-0.4320525244	-4.5571242023	 0.110256
H	-2.2135404003	-1.5992060468	-3.7366208229	 0.10874
H	-0.6988156274	-2.4663609731	-3.5618798805	 0.108084
H	-1.326959128	-2.4405690974	-1.2341648783	 0.113355
H	-2.2323508579	-0.9449883404	-1.3995630961	 0.125507
