20
gdb 117377	4.96756	0.75022	0.71219	2.1097	77.04	-0.2362	0.0159	0.2522	1659.621	0.169226	-440.28565	-440.275824	-440.27488	-440.321846	34.583	
C	-0.4721884595	 0.938748779	-0.456877497	-0.385935
C	 0.4973628751	 0.0079020797	 0.2554589789	-0.055673
O	 1.3524674214	-0.6816945287	-0.6818467229	-0.245359
C	 0.8644725934	-1.8197569439	-1.2161246188	 0.454096
O	-0.2059994264	-2.2989333662	-0.9459611235	-0.352413
C	 1.8493781421	-2.3760786594	-2.2343982428	-0.279602
N	 1.6466071745	-3.7945148198	-2.439898453	-0.052986
C	 0.5820825971	-4.1690613723	-3.3617532988	-0.198909
C	 2.0100534712	-4.3146487738	-3.7560505882	-0.225278
H	 0.0649020105	 1.6501343882	-1.0909757363	 0.124934
H	-1.1695803453	 0.3682437501	-1.0750485323	 0.143022
H	-1.0514678447	 1.5045075239	 0.2798097426	 0.12191
H	 1.1858940839	 0.5634348301	 0.8965028136	 0.113781
H	-0.0370753008	-0.7334570417	 0.8536508991	 0.134854
H	 1.7228134355	-1.7752952063	-3.1566469044	 0.107376
H	 2.8684205948	-2.1951606827	-1.8799917945	 0.133601
H	-0.0066165999	-5.0327804313	-3.0699618775	 0.1235
H	 0.0122407043	-3.3706800393	-3.8329929342	 0.111959
H	 2.3987790586	-3.6142897381	-4.4941756883	 0.107633
H	 2.4901819241	-5.2886639476	-3.7579053416	 0.11949
