19
gdb 52966	5.39191	0.76559	0.72579	1.3884	87.98	-0.2199	0.0446	0.2646	1605.0118	0.157805	-385.838987	-385.829464	-385.82852	-385.875004	34.528	
C	-0.0526344068	 1.4813728631	-0.0125188516	-0.508132
C	-0.0286637637	 0.0262416473	-0.0065581095	 0.238287
C	-0.0111454965	-1.179870145	-0.0066366653	-0.204479
C	 0.0327534058	-2.6023135582	 0.0180256826	 0.205439
C	-0.325444399	-3.4712165183	-1.1660298879	-0.313445
C	-1.1354340414	-3.6228852293	 0.0850397353	-0.106288
C	-0.3745597112	-4.4401115932	 1.1177885364	 0.122316
O	-0.1811209887	-5.7853726541	 0.7349967565	-0.43305
C	 0.8384631569	-3.450321505	 1.0207272354	-0.336022
H	 0.7622934799	 1.8923839055	 0.5941565038	 0.146861
H	 0.0593358379	 1.8808633793	-1.0269627013	 0.146048
H	-0.9932231803	 1.8703014242	 0.3943896616	 0.145133
H	-0.8255387304	-2.9532136959	-1.9765973364	 0.121184
H	 0.350006708	-4.2634135357	-1.4761508896	 0.12099
H	-2.1987480485	-3.4199387571	 0.1070623288	 0.094039
H	-0.848410356	-4.3760733815	 2.1059929696	 0.07312
H	 0.3318210283	-6.222679111	 1.4221556905	 0.283205
H	 1.7672354181	-3.8772627919	 0.6294439639	 0.096453
H	 1.0410448976	-2.9331677732	 1.9603835972	 0.10834
