17
gdb 62740	2.56721	1.54482	1.25706	3.5117	68.89	-0.2551	-0.0071	0.248	1050.7348	0.133208	-458.958151	-458.949242	-458.948298	-458.991191	33.408	
C	 0.0055142204	 1.5320343661	 0.0502705081	-0.46483
C	 0.054584171	 0.016380493	 0.0525819596	 0.23322
C	-1.1858345129	-0.6570461248	-0.514761867	-0.450317
C	 1.3267192259	-0.7448264364	-0.1795670193	-0.045928
O	 2.4581629406	-0.0051835157	 0.3561877699	-0.259928
C	 1.963825689	-0.1337921436	 1.6529807036	 0.389957
O	 2.5113919447	 0.1440439136	 2.6689845087	-0.328518
C	 0.6794856691	-0.7934051742	 1.2034344641	 0.145978
O	-0.0662974139	-1.6983613483	 1.9096163354	-0.441267
H	 0.9457611659	 1.9736204855	 0.3847042172	 0.146823
H	-0.1959242874	 1.8990637848	-0.9620527479	 0.122505
H	-0.7978253357	 1.8901193596	 0.7021244246	 0.128404
H	-1.3733819511	-0.290874462	-1.5291735954	 0.124344
H	-1.0854113002	-1.7444046049	-0.54935068	 0.127978
H	-2.0625160437	-0.426969411	 0.0981137333	 0.137889
H	 1.5378479285	-1.502104878	-0.9218062462	 0.130246
H	 0.5232339997	-2.3552932538	 2.2981923913	 0.303443
