20
gdb 114710	2.55114	1.42964	1.16063	3.2993	78.62	-0.2286	-0.0187	0.2098	1153.208	0.171994	-403.157775	-403.149221	-403.148277	-403.191211	32.537	
C	 0.2005870453	 1.2468631172	-0.4817839154	-0.38706
C	 0.2863054422	-0.2271382935	-0.0771866006	-0.188239
C	 0.6692275273	-0.4458556206	 1.4047713772	-0.102596
C	 0.6204134705	-1.9298438895	 1.8622305551	-0.24617
C	 2.0711206079	-2.3872283249	 1.9539017822	-0.032137
N	 2.8117636681	-2.143975763	 0.7120946267	-0.327298
C	 2.9734584082	-1.206387056	 1.8674859145	-0.158556
C	 2.1106683462	 0.0129211051	 1.7020030894	 0.449074
O	 2.476726869	 1.1539722876	 1.8436948545	-0.33727
H	 1.1483055485	 1.764912862	-0.3149399896	 0.141322
H	-0.0602868651	 1.3413702054	-1.5405451332	 0.107577
H	-0.5656776952	 1.7717521908	 0.0997810422	 0.110504
H	-0.6861429452	-0.7086515347	-0.2411206919	 0.092619
H	 1.0058403914	-0.7588832251	-0.7077953527	 0.127471
H	 0.0063724733	 0.1715440894	 2.0204499978	 0.096276
H	 0.1543208587	-2.0128923635	 2.8496768295	 0.10506
H	 0.0479960689	-2.5575987653	 1.1719883338	 0.109588
H	 2.3327331043	-3.2448937371	 2.5653136376	 0.095318
H	 3.6376602327	-2.7383327447	 0.6843538819	 0.241069
H	 3.9325092931	-1.1256266797	 2.364736501	 0.10345
