13
gdb 31481	4.03198	1.01544	0.81634	4.2436	67.26	-0.2725	-0.0499	0.2226	1289.2921	0.089707	-452.781321	-452.773358	-452.772414	-452.814707	27.68	
O	 0.184325404	 1.1340560622	-0.6817811024	-0.407703
C	-0.067117378	 0.1715377273	 0.3058564223	-0.151292
C	-1.4239907131	-0.4370995459	 0.1405012928	 0.37625
N	-2.1917464187	-0.323867967	-0.8913815458	-0.367367
C	-3.308559211	-1.1012193241	-0.5774624831	 0.153629
C	-3.1312728571	-1.6459753143	 0.6554952762	-0.098934
O	-1.9267763833	-1.2272982315	 1.1245600495	-0.16044
C	-4.4181756972	-1.2572021377	-1.4477173826	 0.221986
N	-5.3304790186	-1.3966345034	-2.1453302955	-0.325512
H	-0.3579702188	 0.9142911912	-1.450066942	 0.307864
H	 0.6808866497	-0.6402582597	 0.2949510555	 0.126825
H	 0.0012396293	 0.6478144344	 1.2918948562	 0.141594
H	-3.7153999972	-2.2910871016	 1.2880857888	 0.183102
