21
gdb 77679	1.76254	1.67232	1.64065	1.8862	78.31	-0.2275	0.0764	0.3039	1077.4778	0.181112	-424.219639	-424.210152	-424.209208	-424.253225	36.058	
C	-0.3999914585	 1.4667434278	 0.1061126723	-0.417098
C	-0.1076982835	-0.0054235	-0.0697165448	-0.139701
C	 0.6068770124	-0.602263525	-1.2742532094	 0.307521
O	 0.153438304	-1.8161860546	-1.7993583501	-0.472067
C	 1.4073539921	 0.3316033047	-2.1875489182	-0.313349
C	 2.6835151691	 0.5901858432	-1.3614249523	-0.077513
O	 2.333846453	 0.3656611637	 0.010211266	-0.302146
C	 1.2960559123	-0.5906700063	 0.059780805	 0.366181
C	 1.5923739999	-1.8103537103	 0.8861077486	-0.460785
H	-1.2002014304	 1.8064946903	-0.561249733	 0.108671
H	-0.7177532383	 1.6716452365	 1.1338582445	 0.119558
H	 0.4892633316	 2.0723246338	-0.0827527146	 0.130275
H	-0.8761870056	-0.6749880301	 0.313287395	 0.081351
H	-0.7149929022	-1.6683071258	-2.1888234999	 0.281986
H	 1.6237704644	-0.1801910903	-3.1280807056	 0.111926
H	 0.8747751767	 1.2598106485	-2.4183417938	 0.102972
H	 3.482732661	-0.1038415341	-1.6614002575	 0.098517
H	 3.0670778344	 1.6111430879	-1.4420984908	 0.104802
H	 1.6847033143	-1.5537825905	 1.9464715862	 0.121126
H	 0.7924172692	-2.5459311357	 0.771444893	 0.127155
H	 2.5313613241	-2.2729652137	 0.5651747994	 0.120618
