14
gdb 10128	2.99039	1.5034	1.17139	4.4845	56.	-0.276	-0.0496	0.2264	1005.449	0.104027	-456.829588	-456.821087	-456.820142	-456.863299	28.621	
O	 0.0984497079	 1.4170825071	 0.1255167677	-0.41219
C	 0.0662702675	 0.0156172957	-0.0181467992	-0.08222
C	-1.3710121603	-0.5055315909	 0.0077216992	-0.02033
O	-1.8845561114	-0.1970548768	 1.2981927746	-0.201328
C	-3.0952565461	-0.704999626	 1.6460804095	 0.188995
O	-3.6190416789	-0.4274249809	 2.6788615792	-0.266344
C	-2.2075577184	 0.149348248	-1.0904203375	 0.167989
O	-3.2943360858	 0.6237507593	-0.9054587611	-0.22798
H	-0.3428158317	 1.6289614247	 0.9569158217	 0.305017
H	 0.5214277164	-0.2182031928	-0.9861277933	 0.124141
H	 0.6432386907	-0.500901983	 0.7618537231	 0.117987
H	-1.3720425509	-1.5935898083	-0.1706706013	 0.114075
H	-3.4988436061	-1.4091909172	 0.8983687833	 0.09096
H	-1.7320203427	 0.128507331	-2.0947148859	 0.101227
