18
gdb 96650	4.09635	1.04668	0.84827	1.7846	78.66	-0.2333	-0.0229	0.2104	1363.4239	0.148377	-435.287023	-435.277897	-435.276953	-435.321555	32.535	
C	-0.0375712883	 1.398255301	-0.048963825	-0.338668
N	-0.0630025517	-0.0513909401	-0.0353146416	-0.271294
C	 0.517983591	-0.6290625158	 0.9442296287	 0.273085
N	 1.1495927514	-0.0454193404	 2.0199780432	-0.561409
C	 0.5231202329	-2.1157828275	 1.0137882325	 0.416352
N	 1.1851749444	-2.7708858355	 1.8850151816	-0.337621
C	 0.929375931	-4.1924119142	 1.6192471199	-0.189629
C	-0.0059070123	-4.1884515009	 0.3812890443	-0.113536
O	-0.2094363382	-2.7844595811	 0.10074861	-0.239027
H	 0.9855998421	 1.7969020774	-0.1554024359	 0.107095
H	-0.6193630693	 1.766082312	-0.8973532001	 0.126329
H	-0.4608142882	 1.8321297201	 0.8707937628	 0.116647
H	 1.5010485346	 0.8907719799	 1.9069314254	 0.25448
H	 1.7095824487	-0.6729603646	 2.5788784742	 0.269238
H	 1.8729250795	-4.7161627218	 1.4334522583	 0.120028
H	 0.4674842541	-4.6589777735	 2.4961295133	 0.120835
H	 0.4388159087	-4.6511041754	-0.5041209738	 0.123245
H	-0.9826673904	-4.6430977195	 0.5658644921	 0.123848
