16
gdb 35389	4.22922	1.29948	1.18129	4.0766	72.5	-0.245	0.0222	0.2672	1031.2962	0.127821	-396.862591	-396.855994	-396.85505	-396.893769	26.343	
N	-0.1172557906	-1.1720199319	-0.1686353267	-0.326472
C	-0.0830886856	-0.0216180333	-0.0656623069	 0.31018
C	-0.0133823963	 1.4429608242	 0.0331307066	-0.179658
N	-0.4622656842	 1.9388415901	 1.3622569931	-0.315366
C	 0.6729260096	 2.7406739138	 1.7848180488	 0.038342
C	 1.3938000132	 3.4418378006	 0.5830967101	-0.072249
N	 2.7002917418	 3.2587487856	 1.3099343188	-0.330842
C	 1.9699482184	 1.9509272819	 1.4847500741	-0.028217
C	 1.4248740518	 1.9857310888	 0.0174784601	-0.044575
H	-0.6048388299	 1.8615185508	-0.7907713976	 0.123593
H	-1.3128335549	 2.4843029596	 1.2826905868	 0.232305
H	 0.5584444155	 3.2591328276	 2.7340528922	 0.10219
H	 1.1327349653	 4.3649285806	 0.0626257439	 0.084348
H	 3.4528857918	 3.1338681524	 0.6270719611	 0.213163
H	 2.3854050654	 1.1044988239	 2.0310367164	 0.101501
H	 2.0754663088	 1.7280924053	-0.8181324908	 0.091759
