16
gdb 44640	3.12584	1.65691	1.4882	3.0742	67.84	-0.2346	-0.0312	0.2034	915.7111	0.124859	-437.814532	-437.807758	-437.806814	-437.845947	26.592	
O	-0.1917295866	 0.1686340396	 0.5348103929	-0.276613
C	-0.1259695787	 1.2867805731	 0.1305725806	 0.414036
C	-1.0975561558	 2.2649899357	-0.5661799695	-0.31141
N	 0.0188500104	 3.2462072028	-0.7467877387	-0.147209
C	 0.2143649466	 4.3110488806	 0.3043615541	-0.038016
C	-0.6447409317	 4.2842482077	 1.5725218067	-0.096726
O	 0.1824157502	 3.2455862447	 2.156116567	-0.288995
C	 1.1615232317	 3.3770648354	 1.0999294296	 0.095534
C	 0.9965336785	 2.3365255733	-0.0269061575	-0.144347
H	-1.4785701896	 1.895460361	-1.5245899718	 0.140721
H	-1.9501617259	 2.5902308687	 0.0373948841	 0.135125
H	 0.4769002824	 5.2783356202	-0.1232691408	 0.09711
H	-0.5722632286	 5.2174816796	 2.1465472614	 0.111257
H	-1.6985874449	 3.9960826533	 1.5008678498	 0.11594
H	 2.1600496765	 3.6153829777	 1.4727075525	 0.090047
H	 1.9000454457	 2.0292563466	-0.5624666603	 0.103545
