21
gdb 103134	2.2467	1.4152	1.09765	3.3411	78.67	-0.243	-0.0264	0.2167	1208.2218	0.180531	-424.240457	-424.230622	-424.229678	-424.274728	36.917	
C	-0.5874095513	 1.338020045	-0.0608775549	-0.414731
C	 0.1210808107	-0.0087577454	-0.0941892231	-0.034544
C	 1.5186415563	-0.0811491666	-0.794568693	-0.362405
C	 1.988354343	-0.9326683068	 0.3831264679	 0.388048
O	 2.8848513903	-1.7190823148	 0.5503686721	-0.330525
C	 0.751476537	-0.597804	 1.2290251328	 0.158397
C	 1.0391841116	 0.4108969293	 2.3461835959	-0.446254
C	 0.1106621372	-1.8779358582	 1.7911821955	-0.107732
O	 0.9695629708	-2.5288361264	 2.7051539669	-0.423907
H	 0.0556874925	 2.1266228258	 0.3419057818	 0.119575
H	-0.8864396659	 1.6388270105	-1.0705687424	 0.121371
H	-1.4933128534	 1.2990382727	 0.5533491623	 0.122067
H	-0.5452990306	-0.7593529602	-0.5334336022	 0.082618
H	 1.5950251196	-0.5295241233	-1.7880444223	 0.129065
H	 2.0258474229	 0.8907318003	-0.8114305338	 0.131636
H	 1.6463338817	 1.2546358577	 2.0045282471	 0.113271
H	 0.1025971567	 0.8106497348	 2.7499034912	 0.120916
H	 1.5719326658	-0.0926453983	 3.1558156632	 0.146034
H	-0.8098349238	-1.6358702972	 2.3363719227	 0.106006
H	-0.1670795956	-2.5436454311	 0.9572967246	 0.08411
H	 1.8043155645	-2.6793753879	 2.2396858376	 0.296984
