19
gdb 23210	2.59441	1.32262	0.97015	0.942	81.62	-0.2078	0.0044	0.2122	1245.1709	0.157478	-419.118381	-419.109297	-419.108352	-419.152031	34.301	
C	-0.1677929988	 1.5358742851	 0.1404462415	-0.331214
N	 0.0293283052	 0.1024417127	 0.0818462527	-0.13757
C	-1.1729722978	-0.7523266933	 0.2999223608	-0.26733
C	-0.3647791804	-1.5529640951	 1.2988246272	 0.342001
N	-0.4847499897	-2.6162133811	 1.9723950912	-0.259945
O	-1.7339919333	-3.2223091463	 1.7365485282	-0.392993
C	 0.7403290549	-0.5663276095	 1.1908590934	 0.288686
C	 2.2183802732	-0.7801659711	 1.3135348326	-0.308121
C	 1.4961686923	 0.074911473	 2.3304315364	-0.328234
H	 0.7944304147	 2.0511198978	 0.0524178689	 0.121479
H	-0.7845396312	 1.8482796074	-0.7083312917	 0.124476
H	-0.6592446715	 1.8797949645	 1.069045857	 0.097212
H	-2.0221828702	-0.229156285	 0.7649862319	 0.115249
H	-1.5244877757	-1.2804623115	-0.5917826141	 0.129712
H	-1.6852959553	-4.0091209186	 2.2897926227	 0.307287
H	 2.5553338016	-1.7680953211	 1.608026459	 0.129174
H	 2.8467303877	-0.2760859437	 0.5865233988	 0.120922
H	 1.6537743678	 1.1475311079	 2.2907583904	 0.119395
H	 1.3297779967	-0.3232063621	 3.3255262532	 0.129813
