19
gdb 40461	3.94767	1.29532	1.21319	1.5195	78.44	-0.2499	0.0809	0.3308	1079.8649	0.160324	-385.813241	-385.806005	-385.805061	-385.845073	29.167	
C	 0.2957461934	 1.4813534478	 0.0564187773	-0.179689
O	 1.144793833	 0.3986468539	-0.3220974613	-0.235098
C	-0.2183169021	 0.1042010525	 0.0099313608	-0.078744
C	-0.4616782098	-0.6997812641	 1.2378577489	 0.360827
C	 0.4008147988	-0.5217769572	 2.5201664189	-0.287331
C	 0.0494328332	-1.9738139009	 2.8304684295	-0.066472
C	-1.4011029771	-2.2051009094	 2.3748728146	-0.063566
C	-1.9075590166	-0.8900823958	 1.7893162201	-0.284317
C	-0.2631833361	-2.2746591367	 1.3868371938	-0.131868
H	 0.5226875287	 1.9374942476	 1.0186905844	 0.114598
H	 0.0402856102	 2.1790068575	-0.7401114934	 0.11415
H	-0.8257139003	-0.1737007784	-0.8539165771	 0.08759
H	 1.4571215415	-0.4092615282	 2.2643627964	 0.116691
H	 0.0969035767	 0.2612930984	 3.2257022949	 0.083717
H	 0.516013111	-2.6321767511	 3.5517783411	 0.085992
H	-1.9842578164	-3.0269696026	 2.7696904432	 0.085057
H	-2.291115201	-0.1129208176	 2.461433491	 0.088875
H	-2.6265950329	-1.0661059432	 0.9831604578	 0.097279
H	 0.0782977758	-3.0460358225	 0.7123390691	 0.092309
