20
gdb 126598	5.4658	0.6908	0.6627	3.4062	81.05	-0.2591	0.012	0.271	1748.5902	0.17296	-399.364138	-399.355099	-399.354155	-399.399438	32.001	
C	 0.069664702	 1.5559261504	 0.1114261469	-0.381467
C	-0.0365966124	 0.0363794586	-0.0424976991	-0.166188
C	 0.7765290872	-0.4976931291	-1.2258215178	-0.167856
C	 0.6590409779	-2.0173259281	-1.3736508747	-0.167784
N	 1.4046024317	-2.5285867258	-2.5120240008	 0.056778
C	 2.5330631519	-3.2659425706	-2.5416757574	 0.011782
N	 2.9085395039	-3.4961449013	-3.7873647817	-0.278284
C	 1.9451020287	-2.8550041817	-4.5018436792	 0.038528
N	 1.012238091	-2.2532601214	-3.7798753297	-0.254469
H	 1.1077669972	 1.8657794447	 0.2735603016	 0.117757
H	-0.2923483893	 2.0697083648	-0.7855533498	 0.121058
H	-0.5209514119	 1.9111153979	 0.9611947052	 0.115883
H	 0.2999558954	-0.4501670908	 0.8829456156	 0.096391
H	-1.0898855087	-0.2466828896	-0.1687721171	 0.102336
H	 0.4387268182	-0.0332671184	-2.1586537315	 0.130188
H	 1.8343157859	-0.2313060686	-1.1061327419	 0.103914
H	 1.0424916087	-2.5272751394	-0.4841574964	 0.12125
H	-0.3883508982	-2.3091876779	-1.499892292	 0.134593
H	 3.0309988077	-3.6085478694	-1.6466966835	 0.139738
H	 1.9259840132	-2.8334657145	-5.581332707	 0.125853
