19
gdb 108624	2.39951	1.40251	1.02935	2.0333	77.77	-0.2344	0.0001	0.2345	1203.2963	0.158679	-423.015054	-423.006257	-423.005312	-423.048692	32.99	
C	 0.1998436772	 1.5227086933	 0.1269780484	-0.51242
C	 0.0602118956	 0.039208353	-0.013887087	 0.216059
C	-0.177643444	-0.7008408856	-1.1116893163	 0.157225
C	-0.2720599739	-0.2417943547	-2.5350772083	-0.160225
O	 0.7521785334	-0.814642588	-3.349055339	-0.413704
C	-0.2612743753	-2.1865271624	-0.7904189418	-0.324673
C	 0.0537957817	-2.2469015637	 0.6954659662	 0.036702
O	 1.3543637425	-1.7638698829	 1.041281003	-0.260775
C	 0.225526662	-0.8659877638	 1.1707298215	-0.047557
H	 1.1880448183	 1.7865626504	 0.5240339111	 0.136554
H	 0.0612381999	 2.0508827673	-0.8189925646	 0.128385
H	-0.5366782943	 1.9180565328	 0.8381452215	 0.130571
H	-1.2120568344	-0.5836304367	-2.9855878173	 0.111529
H	-0.2629087489	 0.8554785247	-2.5979626032	 0.091067
H	 1.5955997813	-0.5923836973	-2.9398823323	 0.284158
H	-1.2645113315	-2.5837059836	-0.9972498277	 0.107895
H	 0.4420141264	-2.7731400807	-1.3911251099	 0.132126
H	-0.3255036372	-3.0518051696	 1.3191607218	 0.095091
H	 0.0177721213	-0.5335931625	 2.184419584	 0.091992
