18
gdb 34667	3.33042	1.18376	0.91489	5.4077	80.97	-0.2493	-0.038	0.2114	1254.6518	0.150556	-398.151817	-398.14357	-398.142626	-398.184973	30.878	
N	 0.0507931499	-1.0743496421	-0.5589365243	-0.325665
C	-0.0023905916	 0.0528040539	-0.3064752465	 0.266292
C	-0.0138364116	 1.476295983	 0.0147364449	 0.252096
N	-1.1543575978	 2.0393313658	 0.0056453045	-0.273558
C	-1.3544551056	 3.4706417452	 0.1296087973	-0.15212
C	-0.6301631512	 4.229680774	 1.2497473652	-0.206278
C	 0.8844151336	 4.3166052059	 1.0619097704	-0.182401
C	 1.5874178719	 2.9753109265	 1.2477453523	-0.162935
N	 1.2653278405	 1.9749447897	 0.227922082	-0.349159
H	-1.0758430311	 3.9268114666	-0.834637084	 0.115467
H	-2.4321920632	 3.6271593141	 0.2401724941	 0.112587
H	-1.0513744229	 5.2413582044	 1.283426585	 0.103816
H	-0.8605409299	 3.762306001	 2.2161905439	 0.105055
H	 1.1187252125	 4.7174260095	 0.0677466506	 0.106912
H	 1.3074897522	 5.0111331858	 1.7965529624	 0.105026
H	 2.6710317288	 3.1167838067	 1.20167775	 0.115813
H	 1.3514586279	 2.5883471642	 2.252112213	 0.111982
H	 1.9741869876	 1.2599749558	 0.1456520992	 0.257068
