19
gdb 79261	2.38949	2.16035	1.5877	1.5073	72.38	-0.235	0.0833	0.3183	928.6484	0.159797	-423.028404	-423.020876	-423.019932	-423.059877	30.595	
C	-0.0870138243	 1.5635330807	-0.0380703195	-0.41504
C	 0.0126426233	 0.041619906	-0.0307591632	-0.014259
C	 0.9601721115	-0.5524261698	-1.0663249766	-0.18287
C	 2.3050190145	-0.6123100282	-0.345941158	 0.036804
O	 2.1238295116	-0.1165117791	 0.9647086361	-0.27928
C	 0.7817054522	-0.5689701162	 1.1804813679	 0.438969
C	 0.3224032608	-0.3453803236	 2.5908602207	-0.49609
O	 0.8336842691	-1.9599080398	 0.8429217156	-0.280859
C	 1.4434948345	-1.8462727446	-0.4271853168	 0.02532
H	 0.8996247688	 2.0156460942	 0.0928405396	 0.132744
H	-0.5045595825	 1.9219734132	-0.9842472415	 0.113922
H	-0.7392484193	 1.9227541049	 0.7650419209	 0.113598
H	-0.9775909798	-0.4212284146	-0.0891572375	 0.082307
H	 0.8594225957	-0.4107916947	-2.1334728823	 0.09328
H	 3.2858666441	-0.4615927357	-0.7716296884	 0.11027
H	 0.3200081843	 0.7218239153	 2.8230067296	 0.135168
H	-0.6886642508	-0.7385839595	 2.7202022658	 0.132992
H	 0.9931974251	-0.8569073395	 3.2843880667	 0.142259
H	 1.6691913912	-2.7791572692	-0.9221187689	 0.110765
