19
gdb 126155	3.7427	0.90943	0.88286	3.9293	76.91	-0.296	-0.0401	0.2559	1407.1355	0.158582	-419.180845	-419.171741	-419.170797	-419.215804	32.663	
C	 0.0982317531	 1.5325919409	 0.0004921982	-0.3924
C	 0.0086116866	 0.008347067	-0.1171482938	-0.177053
C	-1.4300991416	-0.5491462231	-0.0096760695	-0.089341
C	-2.3427294228	-0.0821573304	-1.1582281729	-0.403164
C	-1.4013360912	-2.0488766893	 0.0642624402	 0.344865
N	-1.7934183833	-2.708482017	 1.1227637599	-0.161654
O	-1.6212603835	-4.0356236868	 0.8340456609	-0.150112
N	-1.1151036225	-4.2075216886	-0.4214091952	-0.061206
C	-0.9745770688	-3.0061683217	-0.9062554238	-0.111938
H	 1.1429672253	 1.8571705727	-0.006855342	 0.120504
H	-0.4080559488	 2.0411663251	-0.8252399993	 0.122081
H	-0.3517311186	 1.882857279	 0.9359696232	 0.121763
H	 0.4505402664	-0.3156471069	-1.0689898188	 0.097401
H	 0.6141186457	-0.4497036153	 0.6732532922	 0.113618
H	-1.8586961949	-0.2034097785	 0.9380180699	 0.105144
H	-3.3456159203	-0.506341963	-1.0575580656	 0.131898
H	-2.4378594262	 1.0063767956	-1.1625133812	 0.127867
H	-1.9433367125	-0.3870100053	-2.1321880823	 0.117316
H	-0.5865603422	-2.8556550745	-1.9015970401	 0.144411
