15
gdb 1870	5.03875	2.28628	1.86658	4.045	57.	-0.2446	0.0632	0.3078	707.6316	0.127728	-341.892484	-341.88592	-341.884976	-341.922752	24.681	
C	 0.1214243319	 1.5267373102	 0.0539269529	-0.393878
C	-0.0629265277	 0.0088148526	-0.0442671119	 0.039307
C	 0.7161085138	-0.62190915	-1.2286700948	-0.170263
N	 1.9769498824	-0.9723593837	-0.595294408	-0.336645
C	 1.8103610485	-1.1684092885	 0.7710609255	 0.426939
O	 2.6188920573	-1.6344307611	 1.5414565137	-0.409586
N	 0.5293161871	-0.719457449	 1.074479623	-0.337576
H	 1.1841982193	 1.7873650219	 0.0648924251	 0.137365
H	-0.352201926	 2.0293726459	-0.7959602097	 0.118636
H	-0.3372990499	 1.9155225012	 0.9690906485	 0.116602
H	-1.1295158236	-0.2247064871	-0.1269926024	 0.08898
H	 0.1840274583	-1.5013728836	-1.6180793189	 0.107577
H	 0.8536073596	 0.0902660346	-2.0479019867	 0.112846
H	 2.6500323517	-1.5598226845	-1.0604701207	 0.252066
H	 0.370925347	-0.4185287087	 2.0236757643	 0.24763
