18
gdb 46190	3.0509	1.65426	1.2419	3.0516	77.18	-0.237	-0.038	0.1991	1020.6117	0.148246	-401.871191	-401.863788	-401.862844	-401.903488	29.036	
O	-0.0962074897	 0.0921159762	-0.5027881082	-0.295607
C	-0.0911617844	 1.2312721666	-0.130017222	 0.318234
C	-1.1700875917	 2.1747270578	 0.4254409341	-0.346169
C	-0.1117273554	 3.3177775467	 0.4441462065	-0.351599
C	 0.9853516627	 2.3287459721	-0.0279148925	 0.296567
C	 2.3947764543	 2.1430539182	 0.5870041276	-0.127321
C	 2.7251410429	 1.44152913	-0.7476618888	-0.180913
N	 1.9083129159	 2.6661469273	-1.220156083	-0.180328
C	 2.7331667213	 3.4411967166	-0.1711970096	-0.174039
H	-2.0252892568	 2.3140419784	-0.2409233705	 0.138697
H	-1.5445897571	 1.8649209647	 1.4056494371	 0.134657
H	-0.3074664218	 4.1062329436	-0.2856858167	 0.127176
H	 0.0625997087	 3.7721692347	 1.4214600558	 0.11262
H	 2.6453077163	 1.848030387	 1.611668368	 0.072556
H	 3.7640051472	 1.4726490547	-1.0862711727	 0.100455
H	 2.2475379393	 0.4876538246	-0.9662611622	 0.14294
H	 2.2689847404	 4.3753460767	 0.1527193995	 0.107145
H	 3.7717935678	 3.597579424	-0.4759832723	 0.104931
