20
gdb 86328	2.09378	1.50038	1.15056	4.3508	75.95	-0.2362	0.0173	0.2535	1174.4116	0.169478	-440.311473	-440.30144	-440.300495	-440.346978	36.193	
C	-0.2414467299	 1.5454034035	-0.711695732	-0.413828
C	-0.1599249316	 0.1481714109	-0.1340474894	 0.167438
O	 0.4600366614	-0.7909413366	-1.0364810211	-0.305272
C	 1.3446218924	-1.2890522556	-0.0117714897	 0.167454
C	 2.7879546238	-1.3483854606	-0.4654839587	-0.413846
C	 0.8567816914	-0.2022067636	 1.0011143844	-0.226606
C	 1.8475660024	 0.8698058005	 1.4129294762	 0.425674
N	 1.9391262283	 1.0787742321	 2.7599279007	-0.533898
O	 2.5208737136	 1.5080096034	 0.6216377041	-0.366002
H	 0.7512261544	 1.9311455541	-0.9442203247	 0.158753
H	-0.8434310326	 1.5174741716	-1.6257117266	 0.121034
H	-0.7300520618	 2.2242515767	-0.0036123471	 0.106896
H	-1.1670289898	-0.199289788	 0.1416671115	 0.070862
H	 1.0178381836	-2.2863738634	 0.3192369785	 0.07087
H	 3.1498568837	-0.3600261565	-0.7491218293	 0.158736
H	 3.4243725234	-1.7444053579	 0.3339403564	 0.106917
H	 2.8628993537	-2.0228004178	-1.3246369674	 0.121051
H	 0.3737348343	-0.6330589935	 1.8808219105	 0.062715
H	 1.3944804147	 0.5666630198	 3.4299626534	 0.259738
H	 2.5822678649	 1.7806586809	 3.0885211605	 0.261314
