21
gdb 111692	2.47057	1.54364	1.23646	1.7682	77.67	-0.2462	0.0677	0.3139	1115.078	0.183962	-424.206861	-424.198321	-424.197377	-424.23994	33.268	
C	 0.5421970691	 1.2988896877	-0.1204226396	-0.254498
O	-0.2180850977	 0.1777508173	 0.3117428553	-0.256583
C	 0.4601925375	-0.5892333448	 1.268643849	 0.125388
C	-0.0901176802	-1.9209632991	 1.6592955951	-0.108185
C	-1.1189547511	-2.5671782649	 0.7236616429	-0.244263
C	-0.272361584	-3.2762564636	-0.3570182631	-0.218339
C	 1.0360004791	-2.4583711883	-0.4903670653	 0.11278
O	 1.0051207636	-1.5244205658	-1.5623821085	-0.442774
C	 1.2385420539	-1.8337091968	 0.9035302981	-0.131113
H	 1.4584100986	 0.9816843887	-0.6339478703	 0.134985
H	-0.087935059	 1.8635602972	-0.8114900609	 0.129948
H	 0.8076856053	 1.9446263664	 0.7282206264	 0.115256
H	 0.8822692491	 0.0209834368	 2.0684542095	 0.08564
H	-0.1264419376	-2.1614054011	 2.7161782218	 0.085743
H	-1.7578803956	-3.2664187836	 1.26839764	 0.098565
H	-1.7749245406	-1.8082374978	 0.2858621669	 0.116711
H	-0.0195477308	-4.2830594269	-0.0048452525	 0.096573
H	-0.7720992791	-3.3792469976	-1.3244786377	 0.100785
H	 1.8789459711	-3.1147534407	-0.724339255	 0.082966
H	 0.2924778015	-0.9067286428	-1.3574350278	 0.287947
H	 2.1886886072	-1.9941920503	 1.4016538856	 0.082468
