16
gdb 77029	3.0166	1.0116	0.91803	5.0153	75.89	-0.266	0.0164	0.2824	1288.3806	0.121963	-400.710022	-400.700581	-400.699637	-400.745274	33.522	
O	-0.2495562612	 1.3804300262	 0.1491969816	-0.412483
C	-0.137277477	 0.0008199251	 0.0428559588	 0.1046
C	-1.405102253	-0.8013273877	-0.0471194076	-0.060109
C	-2.7504910799	-0.0966353568	-0.0031014698	-0.354623
C	-3.3549493852	-0.1668617247	 1.3271241547	 0.260991
N	-3.8313535572	-0.2388688592	 2.3772172245	-0.305954
C	-0.5108550427	-0.6636575527	-1.2821722844	-0.28797
C	-0.8794120084	 0.1838062545	-2.3749423727	 0.303914
C	-1.1528968365	 0.9344662203	-3.2758530045	-0.440555
H	 0.0408061103	 1.7779600218	-0.680944365	 0.298943
H	 0.7014601709	-0.4268790738	 0.5883447081	 0.11137
H	-1.3889150451	-1.7835917416	 0.4133084667	 0.119298
H	-2.6231329614	 0.9542121449	-0.2760991355	 0.170784
H	-3.4439844764	-0.5412049545	-0.7254723381	 0.156204
H	 0.0530764655	-1.5504124955	-1.5552991748	 0.127243
H	-1.4114137425	 1.5714853138	-4.085675132	 0.208346
