20
gdb 111074	3.80097	1.0532	1.03734	3.8779	79.11	-0.236	0.024	0.26	1259.4313	0.172718	-403.162228	-403.154088	-403.153144	-403.19501	31.943	
C	-0.0039617057	 1.5650328467	 0.0582451657	-0.380471
C	 0.0072763838	 0.0396946128	 0.2187931149	-0.2271
C	-1.3838458978	-0.5723640383	 0.0867842584	 0.063053
C	-2.053929579	-0.6695558443	-1.3213001147	-0.025293
C	-1.2032311039	-1.9482571416	-1.5743903931	-0.241765
C	-1.4871654888	-2.1383768035	-0.038573894	-0.179769
C	-3.0117527367	-2.3154148658	-0.1178163736	 0.41138
O	-3.7300427864	-3.1716051886	 0.3316809988	-0.376074
N	-3.3676822669	-1.2221138425	-0.9164547757	-0.31649
H	 0.9972877914	 1.9826279417	 0.2001184647	 0.117027
H	-0.3485495701	 1.8606215747	-0.9384879608	 0.116651
H	-0.6690998649	 2.0353174389	 0.7904276763	 0.12102
H	 0.7089272243	-0.3973419587	-0.4994439974	 0.100076
H	 0.3955805763	-0.217532621	 1.2125249809	 0.105562
H	-2.0468380882	-0.133470617	 0.8398578321	 0.083752
H	-2.125353793	 0.166146871	-2.0160269782	 0.079919
H	-1.6155058112	-2.6918227667	-2.2615015952	 0.105248
H	-0.153910352	-1.7645283054	-1.8049348839	 0.110891
H	-0.9470028484	-2.8357149697	 0.5976315296	 0.085317
H	-4.1182796827	-1.3311952528	-1.5835596651	 0.247065
