17
gdb 77428	1.84748	1.66836	1.65961	0.5117	68.16	-0.2016	0.0651	0.2668	995.2258	0.13327	-458.863779	-458.85509	-458.854146	-458.89638	33.801	
O	 0.0213733646	 1.4321829301	-0.2125849577	-0.419774
C	-0.0974623065	 0.0515621234	 0.0232848197	-0.034801
C	-0.4476874287	-0.6811176151	 1.2834027356	 0.263827
O	 0.4804730498	-1.5447445555	 1.8302087443	-0.449794
C	-1.6289223642	-0.1071158586	 2.111468458	-0.136736
C	-2.2549466817	 1.1605687817	 1.5768438064	-0.305638
C	-2.5303732034	-0.1564782345	 0.8960590227	-0.116702
C	-1.373462066	-0.7317273284	 0.0280106102	 0.253964
O	-1.6213095475	-1.7534526602	-0.870689383	-0.454037
H	 0.8213176816	 1.7349104771	 0.231977752	 0.288277
H	 0.6586150725	-0.5426580457	-0.5000328336	 0.101997
H	 0.0100580364	-2.2963395505	 2.2092160055	 0.290958
H	-1.8434542548	-0.4897161636	 3.1022247568	 0.086295
H	-3.0816267318	 1.5298630762	 2.1796652176	 0.105602
H	-1.6612811782	 1.9226488859	 1.0941839429	 0.142718
H	-3.5149334689	-0.6021633286	 0.8357339781	 0.094035
H	-1.7175110932	-1.3698826336	-1.7502040756	 0.289807
