19
gdb 54916	3.57595	0.96648	0.91344	3.6724	73.41	-0.235	0.0537	0.2887	1345.1422	0.158397	-456.370106	-456.360545	-456.359601	-456.404568	35.654	
C	 0.2236018273	 1.452641242	 0.086828711	-0.45397
C	-0.1089607412	-0.0263166446	-0.0488686795	 0.389955
O	-1.4756328742	-0.2380268499	-0.3270709434	-0.467687
C	 0.9001849513	-0.8401518147	-0.9275962836	-0.216308
N	 1.4201091009	-1.4420323069	 0.3043854306	-0.11019
C	 0.3370555934	-0.9104008174	 1.1474316353	-0.224201
C	 2.010989263	-2.684897733	 0.3455367484	 0.41254
N	 2.0369202708	-3.2586017633	 1.6090555322	-0.555669
O	 2.4517138641	-3.2346815596	-0.6469341074	-0.393052
H	 1.2739522958	 1.5955193354	 0.3577645581	 0.130553
H	 0.0524940177	 1.9755801616	-0.8623808342	 0.113082
H	-0.4042127178	 1.916563128	 0.8537718775	 0.127469
H	-1.7222982036	 0.3175215727	-1.0745938213	 0.279832
H	 0.4071578688	-1.5647719222	-1.5837198168	 0.12016
H	 1.6369386649	-0.267164929	-1.4990252998	 0.107213
H	 0.6670151747	-0.378417503	 2.0472628744	 0.101139
H	-0.4216231523	-1.6544446097	 1.4135991297	 0.128106
H	 2.0503662341	-2.6437171812	 2.4083991272	 0.251213
H	 2.6700138323	-4.0410930154	 1.6717361016	 0.259815
