21
gdb 59123	3.19815	1.33339	1.28483	1.381	81.43	-0.2386	0.0702	0.3088	1107.1456	0.183054	-387.03356	-387.02529	-387.024346	-387.066315	33.001	
C	-0.0159214995	 1.5590723422	 0.2456829133	-0.406345
C	 0.0599991494	 0.0522907077	-0.0151204097	 0.084156
O	 0.9691012816	-0.5860462198	 0.879112616	-0.422282
C	-1.3133584381	-0.6138228207	 0.0914590152	 0.044558
C	-1.4869783514	-2.1252139069	 0.2339083321	-0.081621
C	-1.5932967005	-2.4644535225	 1.7295738664	-0.048659
C	-1.4588888513	-1.1660102238	 2.519597984	-0.226167
C	-2.2394248391	-0.5050159085	 1.3466662975	-0.092306
C	-2.7912358054	-1.9443974322	 0.975590931	-0.093882
H	 0.9670183174	 2.0284549471	 0.1208407581	 0.101149
H	-0.7040381004	 2.0447345084	-0.4542752935	 0.115569
H	-0.361042832	 1.7566298413	 1.2650990524	 0.128746
H	 0.4091517386	-0.1037629583	-1.051226383	 0.061259
H	 1.8128678387	-0.1278471772	 0.8146969045	 0.278608
H	-1.8951129014	-0.280066001	-0.7769192308	 0.067951
H	-1.2418688464	-2.8934530781	-0.4889631536	 0.075954
H	-1.4142158815	-3.4768747126	 2.0691758262	 0.077267
H	-2.078483873	-1.1984751015	 3.4212832966	 0.08555
H	-0.4621190099	-0.7869969152	 2.7510148318	 0.106735
H	-2.84004222	 0.388119859	 1.5095395265	 0.060663
H	-3.7815740959	-2.3378235576	 0.7989857093	 0.083095
