21
gdb 90899	2.48949	1.95639	1.43054	1.4854	81.01	-0.2036	0.0779	0.2814	1000.7517	0.18395	-383.220669	-383.212783	-383.211839	-383.25232	32.258	
C	-0.1066440933	 1.4761444647	-0.0091474877	-0.335006
N	 0.0518041625	 0.0341654717	 0.0217822382	-0.081137
C	 0.7584152065	-0.5068142976	-1.1522128291	-0.198935
C	 1.4097604518	-1.7750558255	-0.6304854477	-0.035102
C	 1.0212686676	-1.9914684293	 0.7697844135	-0.086977
N	 2.4573151932	-1.6826153891	 0.4361396518	-0.157611
C	 2.2946898938	-0.3443682938	 1.0977800941	-0.202913
C	 0.7430291708	-0.5291025267	 1.1931081003	 0.304248
C	 0.0576728978	-0.2453174721	 2.5112986613	-0.496769
H	 0.8503249023	 2.0322121757	-0.0120233787	 0.093038
H	-0.6538921763	 1.7579738683	-0.9144784596	 0.121643
H	-0.6946723107	 1.8140602947	 0.8483180663	 0.121098
H	 0.0553815681	-0.7247482968	-1.9660101873	 0.105581
H	 1.5100627865	 0.1951082202	-1.5539190686	 0.089515
H	 1.5795404133	-2.6069312241	-1.3040468317	 0.099526
H	 0.6937934743	-2.9111477798	 1.2398582817	 0.089835
H	 2.797550476	-0.377778419	 2.0678182421	 0.105135
H	 2.6780375908	 0.5087311661	 0.5264867919	 0.09499
H	 0.1198663392	 0.8140751733	 2.780670753	 0.120913
H	-1.0000098728	-0.5232150513	 2.4614557595	 0.126729
H	 0.5302706187	-0.8165772395	 3.3155985965	 0.122198
