16
gdb 66732	2.78344	1.67278	1.27164	3.4286	74.25	-0.2282	-0.0328	0.1954	1000.5598	0.122511	-400.641476	-400.633857	-400.632913	-400.673595	29.006	
C	-0.0401873074	 1.4911018709	 0.062074132	-0.525436
C	 0.0831369483	 0.0086405824	-0.022031927	 0.300102
C	 0.2716919818	-0.9775350944	-1.2075151992	-0.163402
C	-0.609638986	-1.9343347133	-0.4499771605	-0.003306
C	 0.878944875	-2.0053815584	-0.2434971877	-0.178106
C	 0.7091090474	-1.0083678156	 0.9151167045	 0.245776
C	 1.3197729823	-0.8530366663	 2.2327094325	 0.014762
O	 2.3176888796	-1.4359202414	 2.5902443709	-0.269557
N	-0.8074619337	-0.9388589945	 0.6972972012	-0.249747
H	 0.8879270794	 1.9835132072	-0.245474782	 0.135044
H	-0.8483393658	 1.8432911953	-0.5886306798	 0.136659
H	-0.2744571711	 1.7952718508	 1.0861673978	 0.14141
H	 0.4442684083	-0.8427540714	-2.2652664954	 0.107476
H	-1.3456339219	-2.6647962015	-0.7580223577	 0.112059
H	 1.5919916011	-2.792659003	-0.434145378	 0.118602
H	 0.7859321628	-0.1335291768	 2.8926228685	 0.077664
