21
gdb 9370	4.51929	0.89853	0.7673	0.7639	79.11	-0.2406	0.0377	0.2783	1553.2041	0.185884	-366.279245	-366.268677	-366.267733	-366.315975	35.794	
C	-0.1116477767	 1.4778193292	-0.031064136	-0.382059
C	 0.0185714195	-0.0457634107	 0.0432110502	-0.187587
C	 0.7512002729	-0.4940436327	 1.2985978645	-0.030189
O	 0.8198785665	-1.9242391724	 1.2735270246	-0.256252
C	 1.4404990145	-2.5275625693	 2.3141484292	 0.406086
C	 1.423583494	-4.0298034965	 2.1301239619	-0.487323
N	 1.9324358646	-1.8421773254	 3.2584776244	-0.28806
C	 2.5952291769	-2.4907838128	 4.3687504605	-0.32466
H	 0.8708809606	 1.9623955015	-0.0392962246	 0.118089
H	-0.6401694892	 1.7830921148	-0.9386623931	 0.116258
H	-0.6672865599	 1.8731257375	 0.8263988637	 0.11809
H	-0.973612606	-0.5117320849	 0.0257384805	 0.104148
H	 0.5555323221	-0.4230011862	-0.8349837691	 0.104145
H	 1.765918289	-0.0819269263	 1.3471286875	 0.109972
H	 0.2339372835	-0.1706320148	 2.2094771952	 0.109968
H	 2.4410134082	-4.4301043069	 2.0956813349	 0.142251
H	 0.9053721323	-4.5187329812	 2.9601907498	 0.142334
H	 0.9145751368	-4.2823875584	 1.200205786	 0.140457
H	 2.6232112389	-3.5885271194	 4.3266543653	 0.098344
H	 3.6293434251	-2.1313100819	 4.4374619231	 0.12296
H	 2.1029210666	-2.2034620632	 5.3058735817	 0.123026
