13
gdb 49335	2.4109	1.82369	1.04516	3.8825	61.69	-0.287	-0.0546	0.2324	1036.5802	0.089472	-489.949514	-489.94183	-489.940885	-489.982538	26.864	
N	-0.1163587144	 1.2775106507	 0.0072494436	-0.518788
C	 0.0053479236	 0.0221496071	 0.0001102761	 0.367405
C	-1.1760202638	-0.9244506682	 0.0023353749	-0.152117
O	-0.6142516334	-2.2374116294	-0.0073224042	-0.239124
C	 0.7397829582	-2.1984238398	-0.0153898015	 0.52092
O	 1.4428757332	-3.1537888288	-0.0237993988	-0.325976
N	 1.1343253624	-0.8250658123	-0.0107464345	-0.248322
C	 2.4666377387	-0.3808888754	-0.0165346671	 0.172062
O	 3.4338468083	-1.0839031705	-0.0254924183	-0.243112
H	 0.7641377796	 1.7886471738	 0.0047279754	 0.237466
H	-1.7900221642	-0.7940442883	 0.8973057988	 0.164341
H	-1.8003418545	-0.7853721837	-0.884156436	 0.16432
H	 2.5132483862	 0.7224078647	-0.0115328483	 0.100923
