15
gdb 124224	5.02668	1.03692	0.86419	4.1194	69.17	-0.2377	0.0015	0.2392	1273.2539	0.113523	-450.128656	-450.120655	-450.119711	-450.162125	28.775	
C	-0.3562747675	 1.3486902724	 0.2196490492	-0.468542
C	 0.305768189	 0.0347024934	-0.0968708149	 0.391934
N	 1.5298125524	-0.2831860409	-0.0186671946	-0.5044
O	-0.6415644948	-0.8469296714	-0.5117290254	-0.23699
C	-0.3410955392	-2.1236796022	-0.8692072027	 0.384871
C	 0.8319884008	-2.8431410602	-0.9245940046	-0.172971
N	 0.4068265394	-4.0535503504	-1.3668050056	-0.162956
N	-0.9185185193	-4.0846428804	-1.5694222829	-0.109772
N	-1.3778531772	-2.90273234	-1.2648660412	-0.256366
H	 0.3773100084	 2.0820665943	 0.5569097686	 0.129878
H	-0.870503129	 1.732980553	-0.6662370394	 0.157195
H	-1.1127700879	 1.2101056167	 0.9977307895	 0.157194
H	 2.0793308719	 0.5072746744	 0.30967851	 0.227824
H	 1.8498193786	-2.5965158376	-0.6989972324	 0.179401
H	 0.9526336047	-4.8809044004	-1.5473687555	 0.283699
