17
gdb 6924	3.28371	1.54162	1.35198	4.2318	65.59	-0.2415	0.026	0.2675	970.8685	0.140333	-401.006436	-400.997682	-400.996738	-401.039724	31.867	
C	-0.1963530365	 1.4067547536	 0.3324600629	-0.449306
C	 0.0633432973	-0.0583956826	 0.0823871449	 0.423164
O	-1.0650537943	-0.7989319346	-0.2979786702	-0.459367
C	 1.3962900104	-0.5291558141	-0.4629033046	-0.389668
C	 0.9869883549	-0.8557501313	 0.9591663555	 0.003394
N	 1.7044185385	-0.2345816903	 2.0324583895	-0.290803
C	 1.1201733176	 0.1123647053	 3.2162546413	 0.154609
O	-0.0666192391	 0.0695505762	 3.4487760543	-0.313359
H	 0.7054684695	 1.9174577212	 0.677986967	 0.115817
H	-0.528847535	 1.9000540834	-0.5890246187	 0.102681
H	-0.9724077149	 1.5200886019	 1.0934227785	 0.152787
H	-1.3531153796	-0.4742550763	-1.1583975255	 0.281827
H	 1.3939414075	-1.3450442315	-1.176194909	 0.120064
H	 2.179123858	 0.209838413	-0.602037616	 0.11129
H	 0.6508858891	-1.8725013566	 1.1470149577	 0.118185
H	 2.7125374412	-0.262301618	 2.0035535596	 0.247031
H	 1.8727538255	 0.4623870805	 3.952604783	 0.071654
