15
gdb 29194	3.18369	1.4212	0.98856	4.7996	71.96	-0.2298	-0.0386	0.1912	1125.8851	0.114563	-454.03763	-454.029896	-454.028951	-454.069942	29.122	
C	-0.0014793205	 1.5616458929	-0.0174077769	-0.49125
C	-0.0164571132	 0.0606541887	-0.0168368789	 0.13642
C	-1.1416296347	-0.6941379312	-0.1269800834	-0.015439
N	-1.078244142	-2.0480504563	-0.1186393898	-0.353613
C	 0.1276864746	-2.7846671094	 0.0012877659	 0.437188
O	 0.0895107695	-3.9953281262	-0.0011144918	-0.389646
N	 1.2674903925	-2.0169896718	 0.1130276482	-0.436546
C	 1.1840509995	-0.7173199971	 0.102981753	 0.3894
O	 2.3236342302	-0.0174887479	 0.2146451498	-0.393911
H	 0.6034617447	 1.9555988775	-0.8408770846	 0.142463
H	-1.0150692206	 1.959475721	-0.1187373505	 0.120343
H	 0.4294514277	 1.9579920846	 0.9080546321	 0.142452
H	-2.1295108123	-0.2570758146	-0.2251779318	 0.137591
H	-1.9127465053	-2.6094820552	-0.2007050883	 0.268349
H	 3.0325560401	-0.6752031451	 0.2855560572	 0.306197
