12
gdb 129866	5.33517	1.33156	1.06646	6.4148	67.28	-0.2135	-0.0378	0.1757	1009.1497	0.078247	-468.775998	-468.769086	-468.768142	-468.807086	26.225	
N	 0.0801491273	 1.3218841117	 0.1813171902	-0.587168
C	-0.075254791	-0.0313752301	 0.0689212553	 0.433653
C	-1.2042390956	-0.8289911581	 0.0273653651	-0.469824
C	-0.6779876699	-2.1513426991	-0.0078756723	 0.405004
C	 0.689975187	-2.0362894117	 0.0121563978	 0.288609
O	 1.0991963952	-0.7344145453	 0.0592909425	-0.213618
N	 1.2645465926	-3.2386138461	-0.0303639872	-0.195405
N	 0.3955918059	-4.1423509405	-0.0733480069	-0.066007
O	-1.0068707752	-3.4152644379	-0.0600652152	-0.274575
H	 0.9690619635	 1.677560135	-0.1396928293	 0.275086
H	-0.7091570303	 1.8756804336	-0.1133721229	 0.273845
H	-2.2256779895	-0.4891578217	 0.026684003	 0.1304
