18
gdb 62817	2.29492	1.54281	1.34898	3.5771	77.57	-0.2741	0.0217	0.2958	1051.7977	0.14759	-401.916881	-401.908571	-401.907627	-401.949373	32.524	
C	-0.1393258806	 1.556885446	-0.0365756681	-0.49414
C	 0.0138029636	 0.0424978574	-0.0334433103	 0.434568
O	-1.2256091156	-0.5538280842	-0.3272411576	-0.474709
C	 1.1976110078	-0.667834856	-0.7565989025	-0.116074
C	 2.1480140314	-0.1485087253	 0.3625753286	-0.277328
C	 0.8771920217	-0.66102137	 1.1066910676	 0.17112
C	 0.9407580862	-1.9054456324	 0.1616791718	-0.264001
C	 0.6095716215	-0.6347675734	 2.5200225327	 0.137018
N	 0.3603980591	-0.5896740434	 3.6493046145	-0.354295
H	 0.7885056263	 2.1000137005	 0.1410125333	 0.132398
H	-0.5477466992	 1.875031842	-1.0003288494	 0.136966
H	-0.8472690279	 1.8596887351	 0.7448872552	 0.127552
H	-1.9038339396	-0.1275455332	 0.2072876055	 0.288478
H	 1.3875085276	-0.6745636825	-1.8290928488	 0.088136
H	 3.0444527827	-0.7478496168	 0.5278365894	 0.114954
H	 2.3746423519	 0.9151967103	 0.4101728638	 0.110049
H	 0.0129234717	-2.4506727021	 0.015743846	 0.13457
H	 1.7959412814	-2.563713972	 0.3239149582	 0.10474
