17
gdb 64592	3.83454	1.17699	1.1571	2.9251	70.77	-0.252	-0.0367	0.2152	1101.4134	0.135571	-458.957778	-458.949773	-458.948829	-458.990401	30.05	
O	-0.0779416324	 1.413528066	-0.0128493202	-0.468974
C	-0.0625965721	 0.0315046279	-0.0039767874	 0.366058
C	 1.0319149075	-0.5500327933	-0.8098473511	 0.098848
O	 1.8209144078	 0.1488288677	-1.4064077678	-0.29223
C	-0.4654706769	-0.7471642416	 1.2448235022	-0.159345
C	-1.2051326839	 0.0563257911	 2.3002430103	-0.085026
O	-2.2841990697	 0.7026665085	 1.6404146792	-0.248411
C	-2.5977225723	 0.0289929459	 0.4298872553	-0.08503
C	-1.3633197964	-0.7647102237	 0.0388228807	-0.159323
H	 0.6739634555	 1.6625591971	-0.5748581559	 0.298123
H	 1.089753383	-1.6572692235	-0.8368197266	 0.091887
H	 0.1209558557	-1.6052627629	 1.5542775241	 0.101006
H	-1.5639636976	-0.6258338604	 3.0875254342	 0.0965
H	-0.5907784039	 0.8337328267	 2.765430671	 0.124207
H	-3.4451435193	-0.6628392847	 0.5608870452	 0.096493
H	-2.87809707	 0.7888301588	-0.3064698176	 0.124221
H	-1.4796170149	-1.6365639995	-0.5954870755	 0.100995
