15
gdb 125108	3.38519	1.22232	0.90313	7.2322	72.53	-0.2291	-0.0405	0.1887	1218.5249	0.11205	-453.972339	-453.963445	-453.962501	-454.006807	30.93	
C	 0.0412226437	 1.5236209596	 0.0362284744	-0.514336
C	 0.0433875751	 0.0347958266	-0.0541768744	 0.250903
C	 0.0302999694	-0.8304015745	-1.1321040294	 0.122833
O	 0.0043398083	-0.5594075984	-2.4621744837	-0.436899
C	 0.0458090063	-2.1426257875	-0.5853048589	 0.176879
C	 0.0391374392	-3.4053913199	-1.3330502778	 0.092159
O	 0.0528921449	-4.5107226228	-0.8429216908	-0.2729
N	 0.0680603201	-2.0892226447	 0.7554690225	-0.262825
N	 0.0671790183	-0.7916198158	 1.0385256482	-0.238936
H	 0.9869153391	 1.9202396313	 0.4240187938	 0.148603
H	-0.1132008444	 1.9675594591	-0.9523101063	 0.126376
H	-0.7656095598	 1.8933681268	 0.6789374074	 0.147025
H	 0.0271108891	 0.3928753528	-2.6000758865	 0.300362
H	 0.0199913053	-3.2614176931	-2.4347031081	 0.081531
H	 0.0803903956	-0.5087735395	 2.0055862797	 0.279225
