21
gdb 78319	2.83404	1.39001	1.19031	1.1604	81.91	-0.22	0.0761	0.2962	1150.1581	0.182197	-387.039086	-387.03074	-387.029796	-387.071269	33.982	
C	-0.0419348304	 1.4322938132	 0.0152497308	-0.422356
C	 0.0618374097	-0.0795182767	 0.0378687123	-0.018329
C	 1.4221181455	-0.6752342696	-0.2129194726	-0.070775
C	 0.7983369496	-0.6957265878	 1.191987005	-0.090796
C	 0.7877066031	-2.2381760318	 1.1739388632	 0.420115
O	 1.4379279235	-2.7290011478	 2.3087444551	-0.487028
C	-0.4612910268	-2.9985397036	 0.6258608817	-0.30497
C	 0.1525820792	-2.954072683	-0.8135746463	-0.244448
C	 1.4123097768	-2.2213611665	-0.2607522398	-0.105938
H	 0.8625287846	 1.8962964019	 0.4229049542	 0.11717
H	-0.1752771545	 1.8036706853	-1.0066186087	 0.116423
H	-0.8915923431	 1.7795800382	 0.6128923216	 0.117775
H	-0.8202633668	-0.5790875764	-0.3557110241	 0.078343
H	 2.2319257713	-0.0574659203	-0.5851600009	 0.079279
H	 1.0636565455	-0.128689926	 2.0770538852	 0.085381
H	 1.5517042305	-3.6797236621	 2.2046562265	 0.275416
H	-0.5251631184	-4.0136862295	 1.0319327609	 0.087171
H	-1.4326397801	-2.5177566679	 0.7695811241	 0.102778
H	 0.3711726528	-3.9433127553	-1.2225398566	 0.095002
H	-0.4254134672	-2.4017834564	-1.557763997	 0.103817
H	 2.3864585852	-2.6753473479	-0.4461327748	 0.06597
