20
gdb 101203	3.47186	0.88777	0.76192	1.4748	77.12	-0.2623	0.0267	0.2889	1503.9476	0.16991	-440.285675	-440.276057	-440.275113	-440.320569	35.225	
C	-0.0821843529	 1.6947832399	 0.4085099944	-0.399935
C	 0.0729880152	 0.2006747803	 0.0989464275	-0.019057
C	 0.7731093142	-0.5397254583	 1.2513400581	-0.075192
O	 2.0677930015	-0.0269512435	 1.526681979	-0.41761
C	-1.2745960791	-0.4341195884	-0.2007180888	 0.125409
C	-1.9626825622	-0.1111842263	-1.5455868211	-0.382562
C	-1.7724293692	-1.5873382367	-1.821454378	 0.434769
N	-2.0575368521	-2.354433129	-2.7703642659	-0.538841
O	-1.1510144985	-1.8437012701	-0.6155498726	-0.267865
H	 0.8860931524	 2.1155533032	 0.6876406633	 0.13834
H	-0.4700885626	 2.2513182311	-0.4500656938	 0.115122
H	-0.7680834891	 1.8507937556	 1.2497250696	 0.116807
H	 0.6969525045	 0.0834775339	-0.8003073636	 0.069848
H	 0.1992680422	-0.4058327419	 2.1764654107	 0.108587
H	 0.8036285538	-1.6156185125	 1.0342060722	 0.111724
H	 2.6436066538	-0.2732357576	 0.7957923664	 0.284237
H	-1.9388888957	-0.3759983409	 0.6689576876	 0.093426
H	-3.0018855567	 0.2162916555	-1.4953851193	 0.139024
H	-1.4041272209	 0.5503083608	-2.2109062549	 0.136334
H	-1.7635774087	-3.3126890152	-2.5733372108	 0.227434
