12
gdb 21092	7.33472	1.38361	1.17268	2.7665	66.33	-0.2623	-0.0368	0.2254	955.6656	0.084064	-373.655548	-373.648506	-373.647562	-373.687095	24.677	
C	 0.0304563895	 1.4445899936	 0.008865931	-0.320883
N	-0.0274193715	-0.0042559311	 0.0295507077	 0.126636
N	-0.244189762	-0.7291256375	-1.0652010099	-0.122661
N	-0.2329834132	-1.9774564798	-0.688209994	-0.256785
C	-0.0039036967	-1.9651230391	 0.6562936211	 0.235217
N	 0.1291026143	-0.7214850532	 1.1289779629	-0.288587
C	 0.0827845841	-3.1282325895	 1.4560125507	 0.315352
C	 0.1543900341	-4.1259569603	 2.1216629306	-0.404556
H	 1.0092496826	 1.7786783307	 0.3585269216	 0.166711
H	-0.1315549903	 1.7596199601	-1.0209480903	 0.175886
H	-0.7468242603	 1.8531156122	 0.6575951386	 0.166717
H	 0.2175139795	-5.0070410262	 2.7116961401	 0.206953
