19
gdb 106820	2.51942	1.55585	1.17232	2.5027	71.3	-0.2448	0.0679	0.3126	1102.0338	0.158174	-460.130786	-460.121941	-460.120997	-460.164082	33.353	
C	 0.2053298388	 1.1459558589	 0.3295932362	-0.254705
O	-0.1850880998	-0.1025197294	-0.2235629914	-0.304381
C	 0.5890625445	-0.5387443929	-1.2899339858	 0.312628
C	 1.9825414154	-1.0910504578	-1.0537776343	-0.40625
C	 0.8277963714	-2.019909693	-1.3711920749	 0.343337
O	 0.3235345539	-2.8795459315	-0.4067132939	-0.479256
C	 0.6221907368	-2.384419523	-2.8284935772	-0.131917
O	 0.7365634132	-1.1497515469	-3.5384160597	-0.258179
C	 0.2592235449	-0.0946919666	-2.7064660604	-0.142062
H	 1.2533605974	 1.1290834749	 0.6550914281	 0.11935
H	 0.0726902359	 1.9642821254	-0.3904028422	 0.11896
H	-0.4390933118	 1.3255384147	 1.1927781331	 0.131912
H	 2.7536328918	-0.9100367754	-1.7962292855	 0.123231
H	 2.3168543582	-1.1191667761	-0.022385617	 0.118018
H	-0.2217533048	-2.3422519072	 0.1843790094	 0.291861
H	 1.3701527161	-3.0652724128	-3.2451064751	 0.113205
H	-0.3752445914	-2.8365076819	-2.9424508053	 0.099928
H	-0.8314721593	 0.0401914415	-2.7903754513	 0.098499
H	 0.7556472787	 0.8224433089	-3.0395999628	 0.105821
