20
gdb 91948	2.33848	1.72394	1.35593	1.3804	77.93	-0.2399	0.068	0.3079	1044.4838	0.172164	-403.116034	-403.108065	-403.107121	-403.148178	31.845	
C	-0.2908199638	 1.534397764	 0.003335538	-0.399043
C	 0.0197470725	 0.0311024535	-0.0069166682	-0.080021
C	 0.9357246441	-0.3918695254	-1.1983073361	-0.233986
C	 2.3299626531	-0.5404515057	-0.6114504421	-0.027655
N	 2.7583561643	 0.6346170492	 0.1772911902	-0.344283
C	 2.2354956374	-0.5682728254	 0.8688133958	-0.134951
C	 0.7870810613	-0.4407509934	 1.2396056426	 0.477023
C	 0.3062301175	-0.2963049004	 2.6152465696	-0.252787
O	 0.2589450521	-1.5680812674	 1.9584462484	-0.290219
H	 0.6311385614	 2.1179271766	 0.0498770002	 0.146656
H	-0.8339660177	 1.8165234911	-0.9050489553	 0.106488
H	-0.9166867183	 1.804021759	 0.8602969526	 0.10528
H	-0.921505378	-0.5256272753	-0.0402431108	 0.087586
H	 0.6190514704	-1.3590188265	-1.6037258962	 0.105147
H	 0.9035103678	 0.3363932947	-2.014766667	 0.102968
H	 3.0827307771	-1.113830443	-1.1428246238	 0.087167
H	 3.7727877859	 0.635679582	 0.2519014256	 0.233278
H	 2.887927859	-1.1626223558	 1.4992760224	 0.090306
H	 1.0197716261	-0.2174577259	 3.4352531991	 0.108725
H	-0.662033532	 0.165080114	 2.8056229352	 0.112321
