16
gdb 25966	5.03046	1.03777	0.8649	1.7137	75.51	-0.2054	-0.0045	0.2009	1291.3584	0.126065	-434.151497	-434.143203	-434.142258	-434.186423	29.857	
C	-0.1089421063	 1.5093692463	 0.0273934927	-0.4901
C	 0.085373576	 0.0076189022	 0.0836726936	 0.416775
O	 1.1819297375	-0.501360157	 0.2691716962	-0.386278
N	-1.0502235734	-0.7376044391	-0.087298147	-0.427774
C	-1.114215895	-2.128190593	-0.0745111126	 0.48138
N	-2.225153478	-2.806496277	-0.2426000873	-0.356097
C	-1.8324949398	-4.1272084953	-0.1572470377	-0.089433
C	-0.485398777	-4.2226107083	 0.0618333139	-0.114178
N	-0.0294759744	-2.9187568305	 0.1137679044	-0.277017
H	 0.5197887629	 1.9147786379	-0.7698471414	 0.161173
H	-1.1442227427	 1.8121052663	-0.1451464151	 0.122138
H	 0.2384263306	 1.9435355444	 0.9687204205	 0.161173
H	-1.9391950184	-0.2872984038	-0.2383076856	 0.272748
H	-2.5481407017	-4.9280133693	-0.2594777095	 0.108016
H	 0.1793689005	-5.0607432866	 0.1830960081	 0.128165
H	 0.8977584392	-2.5441814172	 0.257246067	 0.289309
