25
gdb 88858	3.21382	0.96636	0.83413	0.0816	92.74	-0.2579	0.0814	0.3393	1516.1271	0.230624	-352.36629	-352.356683	-352.355739	-352.401703	36.432	
C	 1.4277327848	 1.1526460115	-0.5638511248	-0.407283
C	 0.8793181776	-0.2228496042	-0.2503037003	 0.000952
C	 1.8017796699	-1.3938740087	-0.0090046645	-0.313549
C	 0.9583487751	-0.8542151481	 1.1243421549	 0.000318
C	 1.5833178895	-0.1782943876	 2.323495998	 0.037576
C	 0.6318391007	 0.767190858	 3.0899759835	-0.209601
C	 1.2292776742	 0.9006704265	 4.516169148	-0.205417
C	 2.2859915096	-0.2352160925	 4.6436507246	-0.206388
C	 2.0485116832	-1.1473184304	 3.4275678806	-0.203729
H	 2.3603081769	 1.3536927358	-0.0287438973	 0.115903
H	 1.6406649556	 1.2496978121	-1.6344646219	 0.113855
H	 0.7143336396	 1.9403788787	-0.2959644848	 0.115045
H	-0.0292110448	-0.4584433154	-0.7996957846	 0.078023
H	 1.5565768548	-2.3598397303	-0.4373772933	 0.104252
H	 2.8675461292	-1.1847982897	 0.0248165486	 0.103537
H	 0.0963684185	-1.4645731823	 1.390772377	 0.071945
H	 2.459534961	 0.3987902559	 1.9983817029	 0.060237
H	 0.5070729587	 1.7310834892	 2.5885218904	 0.09363
H	-0.3624639794	 0.3059605435	 3.1368199443	 0.09136
H	 1.692081332	 1.8806454197	 4.6652271605	 0.095689
H	 0.4488643149	 0.8092657062	 5.2771573502	 0.096351
H	 3.2967222323	 0.1853359237	 4.596233277	 0.095179
H	 2.2139755719	-0.7719220747	 5.5937430066	 0.091847
H	 1.2435822383	-1.8645042524	 3.6388283532	 0.089014
H	 2.9312529562	-1.7280205044	 3.1438512411	 0.091252
