15
gdb 8820	4.01433	1.34541	1.05032	3.9739	63.51	-0.2379	-0.0112	0.2267	1079.3263	0.11803	-395.986363	-395.977268	-395.976324	-396.020795	31.147	
C	-0.2794451484	 1.4045288939	-0.0980855169	-0.310469
N	-0.1088152789	-0.0293460713	-0.2194490315	-0.301443
C	 0.8095060478	-0.5631202668	-1.0684799791	 0.322675
N	 1.6348629844	 0.1593347756	-1.721823801	-0.530456
C	 0.7697992514	-2.1108535848	-1.0529324457	-0.091072
O	-0.5266140288	-2.6436524932	-0.8291120669	-0.410308
C	 1.3757577854	-2.667329848	-2.2740536387	 0.264121
N	 1.8208211415	-3.1163791832	-3.2409926126	-0.312702
H	 0.6762337086	 1.8733871023	 0.1500991573	 0.153349
H	-0.6355466752	 1.8571358063	-1.0319698017	 0.133486
H	-0.9983378872	 1.6084768744	 0.6979751333	 0.12227
H	-0.829497664	-0.6471981388	 0.113343504	 0.25503
H	 2.2612209093	-0.4057446916	-2.2912119986	 0.23155
H	 1.3651884334	-2.4468656096	-0.1956765292	 0.169631
H	-1.0560941194	-2.4909375751	-1.6214933828	 0.304339
