16
gdb 16040	3.45763	1.79012	1.4618	4.8978	70.71	-0.2626	0.0102	0.2727	896.0075	0.131096	-342.750929	-342.743565	-342.742621	-342.782357	27.699	
C	-0.1322237958	 1.4920944337	 0.0171141116	-0.32771
N	 0.1129414258	 0.057930371	 0.0788821951	-0.108648
C	 1.3880597447	-0.5517862552	-0.1881928723	-0.087934
C	 2.5878979073	 0.2623018248	 0.3324260199	-0.244763
C	 1.9634368732	 0.2479501135	 1.7607397759	-0.296904
C	 0.7710299231	-0.5689113416	 1.2076142948	 0.195197
C	 0.1004940361	-1.6163558203	 1.9185427206	 0.225787
N	-0.4127922835	-2.4577490291	 2.5244129219	-0.348346
H	 0.6926674235	 2.1241923317	 0.3710394774	 0.113198
H	-0.3450024216	 1.7561515959	-1.0226456131	 0.135929
H	-1.0200404061	 1.7165348731	 0.6143223616	 0.140733
H	 1.4291708334	-1.3559315725	-0.9147848476	 0.118546
H	 3.5191900969	-0.3042256521	 0.2848543159	 0.122475
H	 2.7463546727	 1.2358760596	-0.1383788934	 0.11404
H	 2.5578683372	-0.3311696155	 2.4682701326	 0.132722
H	 1.707148213	 1.2070649829	 2.2172390091	 0.115679
