19
gdb 100580	3.31673	0.83776	0.72535	2.2686	73.41	-0.2501	-0.0436	0.2065	1545.1412	0.155223	-460.183959	-460.1733	-460.172356	-460.221235	36.458	
C	 0.1931233825	 1.3718212478	-0.3119003603	-0.411202
C	-0.0447140458	-0.1256220237	-0.0215241894	-0.081457
C	-1.529709472	-0.4451205463	 0.1412761277	-0.080403
O	-1.9969167265	 0.2850165467	 1.2663770676	-0.427047
C	 0.5781659854	-0.9758026129	-1.1157116114	 0.356525
O	-0.0765927949	-1.6089423269	-1.9132250002	-0.314754
C	 2.1090142944	-0.9690573824	-1.2167098978	-0.369799
C	 2.5408749797	-0.3087814272	-2.5181902504	 0.164309
O	 3.3172631637	 0.6066908267	-2.5827212544	-0.232364
H	 1.2569081307	 1.6147130959	-0.3804212583	 0.134011
H	-0.2823865712	 1.6603936498	-1.2555746125	 0.127046
H	-0.2506569855	 1.9648588383	 0.4894803124	 0.150624
H	 0.4639099455	-0.3704934313	 0.9214337928	 0.10404
H	-2.0662633862	-0.1677681938	-0.7771614503	 0.103204
H	-1.6621071898	-1.5276784477	 0.2797371782	 0.097992
H	-2.9448241196	 0.1447143178	 1.3422422069	 0.290736
H	 2.6007510379	-0.4746151866	-0.3780259857	 0.129381
H	 2.4206265485	-2.0197140114	-1.2642381481	 0.152366
H	 2.0618626132	-0.7424785226	-3.420993577	 0.106794
