22
gdb 117177	3.80828	0.80392	0.75484	1.7356	80.05	-0.2148	0.0169	0.2317	1644.524	0.191951	-441.51494	-441.503842	-441.502898	-441.55217	38.817	
C	-0.0621320884	 0.9431139264	-0.662891662	-0.386532
C	-0.1307422285	 0.1236250307	 0.6166353037	-0.05793
O	-1.3880272388	-0.5800859396	 0.726129489	-0.247681
C	-1.4664290195	-1.7716067973	 0.1069394044	 0.464796
O	-0.560430272	-2.2849783556	-0.5037365199	-0.378577
C	-2.8632610339	-2.3670020199	 0.226543374	-0.062783
C	-3.7277206929	-1.7725304792	-0.913004597	-0.406815
N	-2.7181824803	-3.8131934885	 0.2456421204	-0.286116
C	-3.949272107	-4.583747867	 0.2499841165	-0.314695
H	 0.8667152159	 1.5220584976	-0.6827737629	 0.121977
H	-0.0771701759	 0.2897232108	-1.538372542	 0.143914
H	-0.9025441514	 1.6406057244	-0.7249920374	 0.125341
H	 0.6828979286	-0.6036221072	 0.6622347777	 0.134795
H	-0.0974224657	 0.7618085456	 1.5026169222	 0.114265
H	-3.2900302907	-2.0436102311	 1.1834487706	 0.098733
H	-4.7568148755	-2.1344309349	-0.8484349549	 0.123027
H	-3.7499975116	-0.6805846387	-0.8486137164	 0.125708
H	-3.3214189044	-2.0558245437	-1.8897414659	 0.124065
H	-2.0957478703	-4.0926977427	-0.5044388771	 0.228771
H	-4.545092281	-4.3177503833	 1.1315907553	 0.117602
H	-4.5943263823	-4.4563023451	-0.635889488	 0.096691
H	-3.7023558544	-5.6465536916	 0.3313644597	 0.121444
