23
gdb 110504	2.55072	1.39079	1.14698	0.2487	89.02	-0.2403	0.0915	0.3318	1221.1754	0.205946	-351.116979	-351.108145	-351.107201	-351.150208	35.029	
C	 0.0459836678	 1.5335085355	 0.1171105727	-0.379267
C	-0.0945854803	 0.0112805414	-0.0050938072	-0.210565
C	 0.6859987587	-0.5537816946	-1.1896030857	 0.011096
C	 2.211528152	-0.6601307893	-1.1651498726	-0.076745
C	 2.5779113036	-2.0276409594	-0.5631217356	-0.063726
C	 1.2783489631	-2.7526806778	-0.2284414079	-0.27572
C	 0.69480174	-2.0882662967	-1.5120075834	 0.297176
C	-0.4410288753	-2.7247177025	-2.2694096677	-0.510248
C	 2.1926917981	-1.9039745648	-2.0167198004	-0.139166
H	 1.0937457468	 1.823691824	 0.2513576301	 0.116605
H	-0.3235663248	 2.0394343719	-0.7820357333	 0.111574
H	-0.5175722825	 1.920064183	 0.9720216628	 0.109062
H	 0.2427186336	-0.4560722981	 0.9264919491	 0.097192
H	-1.1565080491	-0.2480859041	-0.1158379152	 0.089699
H	 0.3880453189	-0.0237963241	-2.1047338675	 0.059125
H	 2.9402674456	 0.1405103532	-1.1957817789	 0.077729
H	 3.5658345312	-2.2054797197	-0.15736309	 0.079549
H	 1.3871458109	-3.8327281208	-0.3700146975	 0.091449
H	 0.7787903919	-2.5637970543	 0.7285319461	 0.084784
H	-1.3638561452	-2.7109128736	-1.6766317721	 0.117785
H	-0.6418512694	-2.1959834689	-3.2079539012	 0.11443
H	-0.222398175	-3.7702409117	-2.5136998926	 0.114617
H	 2.7055315493	-2.1626894888	-2.9319465119	 0.083567
