21
gdb 75459	2.1268	1.51544	1.23536	2.5486	85.	-0.2307	-0.0244	0.2064	1155.0838	0.181005	-387.12743	-387.117789	-387.116844	-387.161997	35.668	
C	-0.0886927978	 1.479964241	 0.0685492826	-0.499351
C	 0.0025648646	-0.0129965381	-0.0044197801	 0.299593
C	-0.0350554198	-0.7745294895	-1.100187503	-0.173178
C	 0.054350103	-2.2499645261	-0.8081319488	-0.25999
C	 0.4233059841	-2.2821411882	 0.6966417805	-0.271672
C	 0.0915593802	-0.8706807471	 1.2668677957	 0.121943
C	 1.1031638268	-0.3665599316	 2.2999646062	-0.449482
C	-1.3186435944	-0.8721879871	 1.8525484256	 0.139084
O	-1.6639905013	-0.2830326701	 2.8447134891	-0.262379
H	 0.8232033056	 1.9158518593	 0.4937960959	 0.132213
H	-0.2416410797	 1.9165657236	-0.9217803436	 0.123968
H	-0.9145379553	 1.7976532868	 0.716823925	 0.140039
H	-0.1311418716	-0.3839019396	-2.1085018692	 0.090588
H	-0.9013460867	-2.7523396681	-1.0102267775	 0.109426
H	 0.7994024418	-2.7606830578	-1.4293397215	 0.106092
H	-0.0888827628	-3.0817909735	 1.2414097492	 0.102392
H	 1.4970041018	-2.4544629945	 0.8159375544	 0.110377
H	 2.0915344845	-0.2528797057	 1.8444280852	 0.110556
H	 0.7941784271	 0.5923895779	 2.7214823516	 0.13466
H	 1.18763622	-1.0735011535	 3.13130635	 0.120818
H	-2.05320298	-1.4553910282	 1.2490309126	 0.074305
