18
gdb 94403	2.64829	1.42534	1.20232	3.2764	71.44	-0.2375	-0.0004	0.2371	1098.6312	0.14828	-439.088109	-439.079782	-439.078837	-439.121275	30.909	
C	-0.2056808465	 1.4909290566	-0.058380294	-0.40741
C	 0.0425117856	-0.0112337899	-0.0823010977	-0.059457
C	 1.2950839892	-0.4625764178	-0.8828724998	-0.173136
N	 2.0277064776	-0.6141341959	 0.3994549599	-0.354279
C	 0.7835096932	-0.59111526	 1.1620533818	 0.139854
C	 0.6929978981	-0.0404277852	 2.5969242816	-0.139653
O	 0.08596336	-1.2981016454	 3.0484123311	-0.248183
C	 0.2156977767	-1.8690756132	 1.8068617549	 0.402105
O	-0.03781342	-2.9854969451	 1.4816528869	-0.336826
H	 0.7048052875	 2.0378092492	 0.2075720368	 0.131133
H	-0.529731834	 1.8371240152	-1.0454650229	 0.124619
H	-0.9889673614	 1.7599657488	 0.6579160556	 0.122028
H	-0.871866674	-0.5518342703	-0.3344446258	 0.098397
H	 1.1344462674	-1.4003780496	-1.4264991316	 0.113832
H	 1.7385778968	 0.2749576183	-1.5605546212	 0.103182
H	 2.590246313	-1.4528863435	 0.4985564342	 0.231332
H	 1.6564930024	 0.1250998219	 3.083538689	 0.128665
H	 0.0177565583	 0.799669036	 2.7697827113	 0.123796
