17
gdb 97304	4.04361	0.90102	0.77387	3.383	77.52	-0.2437	-0.0261	0.2177	1468.3017	0.13428	-455.151746	-455.142284	-455.14134	-455.186763	32.687	
C	 0.0335030466	 1.4733499846	-0.0529630744	-0.310687
N	-0.0355207574	 0.0314142422	 0.0375707202	-0.179579
C	 0.5583053636	-0.6378039001	-0.853181248	 0.087542
N	 0.5701910624	-2.0249720441	-0.8783185842	-0.140168
C	 1.2227055766	-2.941721091	-1.8323867121	-0.192122
C	 0.6517548317	-4.1223704212	-1.0055035183	-0.011678
O	 1.6355259447	-4.9672705522	-0.4696049104	-0.427959
C	 0.0978067533	-3.0416194487	-0.0426972265	 0.398084
O	-0.4618666474	-3.0552451271	 1.0148049018	-0.337234
H	 0.6133167757	 1.8401265066	-0.9161947552	 0.095573
H	-0.9808048826	 1.8839801746	-0.1147378716	 0.133222
H	 0.4817078162	 1.8750997149	 0.8629196836	 0.134498
H	 1.1193664017	-0.2012619914	-1.6936480817	 0.088397
H	 0.856726879	-2.8519613632	-2.8584957679	 0.12296
H	 2.3146568282	-2.8997988884	-1.806352472	 0.135385
H	-0.1407990975	-4.6774612026	-1.5259617928	 0.100625
H	 1.2844260553	-5.3370555528	 0.3488704796	 0.303141
