19
gdb 72221	3.31213	1.70068	1.38613	1.9575	74.21	-0.2424	0.0741	0.3165	975.6382	0.160267	-423.007515	-423.000178	-422.999233	-423.039072	29.463	
C	 0.0355940356	 1.5511610598	 0.129568725	-0.482813
C	-0.0447278492	 0.0662756004	-0.092906861	 0.450886
C	 0.3880633039	-0.5667106242	-1.4371277829	-0.288057
C	-0.7590018493	-1.6185649936	-1.2939475959	 0.111351
O	-0.3515371745	-2.9030013816	-0.8488601222	-0.272787
C	-0.3571120666	-2.9670006349	 0.577975184	-0.090879
C	-0.6495521895	-1.5620095377	 1.0860842953	 0.096724
O	 0.5062999382	-0.6902696148	 1.0235606704	-0.349658
C	-1.3239951062	-0.8268086273	-0.0818061527	-0.1985
H	 1.0839925927	 1.8664812024	 0.1800047439	 0.131166
H	-0.4442953037	 2.0963620941	-0.6893927382	 0.11636
H	-0.4475191235	 1.8320173949	 1.0702185078	 0.123071
H	 0.2127674125	 0.1057340982	-2.2831126787	 0.0963
H	 1.4049890818	-0.9617192278	-1.4806251782	 0.109855
H	-1.3946129155	-1.7450886165	-2.1727983067	 0.082148
H	-1.1327204982	-3.6716309411	 0.9123674251	 0.094397
H	 0.616367187	-3.3210783951	 0.9361733613	 0.114943
H	-1.1142784805	-1.5417040217	 2.0767402418	 0.079817
H	-2.3577970949	-0.4929092232	-0.0399106482	 0.075677
