17
gdb 9398	5.59981	0.77543	0.70614	3.6196	65.66	-0.2752	0.0113	0.2865	1517.4927	0.140351	-401.000553	-400.991022	-400.990078	-401.03565	32.619	
O	-0.0563087989	 1.4579121993	-0.018935503	-0.418364
C	 0.0390741172	 0.0435651027	-0.0006320966	-0.079181
C	-1.378679928	-0.5141720848	 0.0033512984	-0.172013
C	-1.4062252098	-2.0436918203	 0.027414758	-0.212185
C	-2.8414783074	-2.5984132631	-0.0162053513	-0.022594
O	-3.5665300395	-2.1948225693	-1.1632373483	-0.40444
C	-2.8293002549	-4.0719616633	 0.1087616498	 0.256694
N	-2.7994237563	-5.2252873192	 0.1748299752	-0.31486
H	 0.8338982503	 1.821385544	-0.0166394629	 0.288339
H	 0.584427706	-0.3333057812	-0.8819791114	 0.086187
H	 0.5823149334	-0.3101049101	 0.8913584096	 0.087266
H	-1.9071886772	-0.1149316504	 0.8776810647	 0.111576
H	-1.9099394245	-0.1458341155	-0.8793447485	 0.125136
H	-0.8492050472	-2.4549534142	-0.8253718503	 0.108051
H	-0.9155796915	-2.4273476795	 0.9301357127	 0.122612
H	-3.4070157141	-2.1969836854	 0.8326557174	 0.142493
H	-3.1425504775	-2.5789588494	-1.9397344238	 0.295284
