15
gdb 109102	3.3989	1.23246	0.91488	3.4997	70.28	-0.2288	-0.1105	0.1183	1213.7155	0.11209	-453.979704	-453.970872	-453.969928	-454.014146	30.464	
C	-0.0056936673	 1.4410523228	 0.058772955	-0.320155
N	 0.0058871003	-0.000979615	-0.0763458146	-0.352586
C	 0.6174454723	-0.6348610478	-1.0942281103	 0.312412
N	 1.2005175189	-0.0706434362	-2.102066604	-0.320101
C	 1.7212801771	-1.0890357277	-3.0245267877	-0.283178
C	 1.3971708556	-2.4513116677	-2.4263854593	 0.315855
O	 1.6455400513	-3.5502645174	-2.8406139622	-0.27241
C	 0.6477233137	-2.1287004903	-1.1112238863	 0.24012
O	 0.2031728842	-2.8903706844	-0.2910931577	-0.295887
H	 0.989865334	 1.8384525407	 0.2928986378	 0.137421
H	-0.3361689817	 1.9002357583	-0.8772942715	 0.153641
H	-0.6962534029	 1.7194832335	 0.8565494476	 0.13202
H	-0.3244336849	-0.5866077228	 0.6736667139	 0.265197
H	 1.269920514	-0.9862257068	-4.0196354904	 0.143774
H	 2.8039135353	-0.9759385192	-3.1630489702	 0.143877
