18
gdb 117912	3.80908	0.79665	0.70666	3.7293	74.63	-0.2708	-0.0871	0.1837	1584.5057	0.144321	-439.09565	-439.085186	-439.084242	-439.132271	35.261	
C	-0.1448001528	 1.3851876533	-0.0033524742	-0.232381
O	 0.0040527736	-0.0165865316	-0.0133739939	-0.240676
C	 0.6099979776	-0.4948707584	-1.1917719725	-0.066583
C	 0.6941223615	-2.017004019	-1.0777423468	-0.121345
C	-0.6962305628	-2.679307729	-0.9792603359	-0.413925
C	 1.4793873686	-2.5914707926	-2.2353283713	 0.291577
O	 1.8701173995	-1.9723359692	-3.1933122391	-0.274813
C	 1.7633817813	-4.044571908	-2.1372300135	 0.241863
N	 1.9918050307	-5.1748895446	-2.0516802024	-0.303148
H	 0.826911355	 1.8974630127	-0.0758753353	 0.110692
H	-0.7798288251	 1.7328106255	-0.8327540471	 0.110231
H	-0.6180909467	 1.6551068115	 0.9433491617	 0.132166
H	 0.0235854724	-0.2136956527	-2.081475664	 0.103557
H	 1.6152553378	-0.0648108733	-1.3209489975	 0.104864
H	 1.2489813812	-2.2664938793	-0.1618386395	 0.126772
H	-1.2793796728	-2.4941720396	-1.8872297754	 0.13123
H	-0.6182997774	-3.7595281861	-0.8320330972	 0.144237
H	-1.2299549818	-2.2458586097	-0.1323546562	 0.15568
