17
gdb 24287	4.00198	1.55214	1.22093	1.4008	78.96	-0.1724	0.0502	0.2226	999.1313	0.140148	-380.879559	-380.87282	-380.871876	-380.910252	28.225	
C	 0.0126742362	 1.4973587542	 0.0922022605	-0.304552
C	 1.3186602616	 0.740475999	-0.0089916909	 0.001446
N	 2.0649018583	 0.3748795118	 1.1907060178	-0.41855
C	 1.1932983939	-0.4150325002	 1.9736181771	 0.243748
C	 1.1742247988	-1.0406719905	 3.1937540372	-0.224644
N	-0.0148880542	-1.7588741235	 3.231613997	-0.245781
C	-0.7288547901	-1.5896934194	 2.0668398845	-0.248411
C	 0.0036088649	-0.7450921047	 1.2712040228	 0.297464
C	-0.0032637181	-0.0212907525	-0.0225102598	-0.210243
H	-0.2709354906	 1.933896796	 1.0440571928	 0.111464
H	-0.2879456742	 2.0662361695	-0.7817188732	 0.106631
H	 1.9178308134	 0.8549598507	-0.9059499336	 0.09108
H	 2.4866110986	 1.1625675674	 1.6674020964	 0.229078
H	 1.8654312793	-1.0632247261	 4.0192997175	 0.109662
H	-0.3026273159	-2.3387694366	 3.9986396607	 0.256077
H	-1.6810223719	-2.0750122969	 1.9258465749	 0.115918
H	-0.38315946	-0.477055448	-0.9294391118	 0.089612
