18
gdb 110705	2.6458	1.50357	1.22846	1.6577	77.91	-0.2372	0.0004	0.2376	1086.2575	0.147188	-401.913819	-401.905703	-401.904759	-401.94664	31.031	
C	 0.0839826406	 1.6192800861	 0.0077687984	-0.383854
C	 0.1005123442	 0.0939781063	 0.0745353448	-0.140478
N	 0.6436824225	-0.4763040011	-1.1678925107	-0.069156
C	-0.3056440324	-0.5391689504	-2.340968413	-0.174138
C	 0.5497805899	-1.2526799907	-3.3578513038	-0.074449
C	 1.1722647537	-2.2003338126	-2.6347312532	-0.079555
C	 0.6429219309	-1.9809410157	-1.2397293262	-0.168192
C	-0.9061436975	-1.8149859468	-1.5917249838	 0.400129
O	-1.9562420095	-2.2347975774	-1.2404808172	-0.303849
H	 1.0829538453	 2.0056961901	-0.211914541	 0.129567
H	-0.5970147629	 1.9792486833	-0.7702067236	 0.119919
H	-0.2535310357	 2.0378079198	 0.960552735	 0.118572
H	 0.7683237193	-0.2315039199	 0.8804429287	 0.107619
H	-0.9064030663	-0.282710613	 0.3241169806	 0.105814
H	-0.8789728388	 0.3455596765	-2.6061503062	 0.090365
H	 0.5630441945	-1.0673809386	-4.4213536697	 0.116404
H	 1.8300431371	-2.9965473467	-2.9492146849	 0.116663
H	 1.024900985	-2.5433027295	-0.3903690542	 0.088619
