17
gdb 10806	4.86867	1.47278	1.1728	3.2985	72.69	-0.209	0.0008	0.2098	1012.6748	0.14369	-363.924897	-363.917307	-363.916362	-363.956664	28.741	
C	 0.0215253044	 1.5499119062	 0.0338939487	-0.482003
C	-0.0221190708	 0.0514053403	-0.0035021219	 0.267573
C	-0.0483958191	-0.6419498093	-1.1452867009	-0.065838
N	-0.070017791	-2.0443460843	-1.1794913015	-0.327712
C	-0.3126550464	-2.849852425	-0.0892134528	 0.39858
O	-0.2723692649	-4.061243022	-0.1620329687	-0.365426
C	-0.6935924536	-2.0781571226	 1.1676118588	-0.320108
C	 0.0127587271	-0.7189456168	 1.2975689541	-0.313506
H	 0.9088636138	 1.9076479895	 0.5734628538	 0.124359
H	 0.0458849653	 1.9795974642	-0.971772597	 0.11985
H	-0.8485830708	 1.9672791173	 0.5576611451	 0.122952
H	-0.0439116478	-0.1672107122	-2.1201646789	 0.105581
H	 0.1051971003	-2.5288057062	-2.0465419982	 0.252372
H	-1.7793299359	-1.9192804579	 1.1102983589	 0.129523
H	-0.5085471433	-2.7273326838	 2.0251841523	 0.129165
H	 1.0590002125	-0.8665140888	 1.6068954613	 0.116628
H	-0.4556298897	-0.1389827085	 2.1005845671	 0.10801
