14
gdb 8754	4.29669	1.43522	1.08321	4.3991	68.64	-0.2547	-0.056	0.1987	1018.001	0.105637	-378.711633	-378.703139	-378.702195	-378.745478	29.453	
C	-0.0230401612	 1.4539763036	-0.0184389524	-0.354132
N	-0.0058131789	-0.0072715964	-0.001912562	-0.133058
C	-0.0076807531	-0.6599688619	 1.2281893209	 0.171655
O	-0.021895172	-0.0812757829	 2.2895973065	-0.326792
C	 0.012103473	-0.7457623367	-1.1937506727	 0.263217
N	 0.0347363707	-2.0255215918	-1.1829290513	-0.511247
C	 0.0036107572	 0.0314607578	-2.4052592826	 0.262341
C	-0.0020412754	 0.613380778	-3.458202667	-0.432926
H	 0.8649161526	 1.8498790222	-0.5177263943	 0.141971
H	-0.9135015981	 1.8289292009	-0.5292889869	 0.142009
H	-0.033592065	 1.7774775446	 1.0213868626	 0.173654
H	 0.0047339054	-1.7505681153	 1.1150117794	 0.14667
H	 0.0437671697	-2.385141164	-2.1339980003	 0.238538
H	-0.007076605	 1.128185632	-4.38809537	 0.2181
