21
gdb 83429	2.90351	1.33593	1.16451	2.537	83.14	-0.2298	0.0824	0.3122	1165.1336	0.183603	-383.1964	-383.187814	-383.18687	-383.22961	33.051	
C	-0.0779922805	 1.6048912806	 0.2721494984	-0.324508
N	 0.0393079161	 0.1568545246	 0.3708268996	-0.129152
C	 1.1896216122	-0.581350601	-0.1169267611	-0.101159
C	 2.5222733016	 0.1463659102	 0.1329224736	-0.24184
C	 2.173064062	 0.2155059025	 1.6524370108	-0.306042
C	 0.8465942002	-0.5214697495	 1.3622978589	 0.351456
C	 0.1980562542	-1.5179591697	 2.2581428033	-0.110501
C	-1.0512633326	-1.1632760793	 2.9837754506	-0.242169
N	-1.0837529252	-2.1151566073	 1.8624706919	-0.319995
H	 0.8522485745	 2.1608714643	 0.4486777522	 0.110536
H	-0.4403950426	 1.8584569684	-0.7288085388	 0.126275
H	-0.8210022288	 1.950413601	 0.9973087481	 0.124387
H	 1.0187985698	-1.3711833639	-0.8414067852	 0.095682
H	 3.3827323899	-0.496226822	-0.0642383452	 0.109574
H	 2.6711474417	 1.093309969	-0.3946289773	 0.101769
H	 2.8520288324	-0.3873506961	 2.2596244857	 0.11023
H	 2.087744953	 1.2052830442	 2.1108765323	 0.099989
H	 0.8886922929	-2.2158240435	 2.7282945728	 0.085337
H	-1.2536522958	-1.5918670408	 3.9614659449	 0.114488
H	-1.4565447623	-0.1670447211	 2.8263798637	 0.108428
H	-1.3974426128	-1.6129976806	 1.0315608108	 0.237214
