19
gdb 106222	3.40656	1.41644	1.23588	1.4377	79.8	-0.218	0.0214	0.2394	1064.4362	0.160564	-385.852553	-385.845003	-385.844059	-385.884491	30.477	
O	-0.0577817791	 1.2975745667	-0.457266974	-0.42362
C	-0.0393019165	-0.0167129186	 0.0904689781	-0.199597
C	-1.4475026754	-0.5363309289	 0.1207061788	 0.365024
C	-2.4578713005	 0.0588869964	 1.0460057998	-0.152241
C	-3.4558239835	-0.8082634087	 1.2422381376	-0.095901
C	-3.2479579472	-2.0047214698	 0.3402033588	-0.114831
C	-3.4531968411	-1.497179179	-1.145922945	-0.233314
C	-1.9650018817	-1.1811816631	-1.1966881921	-0.09261
C	-1.7114166754	-2.0168152532	 0.036741368	-0.131214
H	 0.8215776237	 1.6743542992	-0.3565866333	 0.285404
H	 0.5916779874	-0.6911852732	-0.5116487957	 0.08096
H	 0.3716208004	-0.0078383646	 1.1126281471	 0.087966
H	-2.3755123709	 1.0652330183	 1.4363748724	 0.100702
H	-4.3648462401	-0.6306231113	 1.8042292844	 0.093146
H	-3.7516784846	-2.9306481026	 0.6129646087	 0.067584
H	-3.6817802986	-2.3352175738	-1.8097920495	 0.101277
H	-4.1773724577	-0.6908827269	-1.30145848	 0.093113
H	-1.3648504063	-1.0790180671	-2.0932492257	 0.08748
H	-0.9894234127	-2.8005033899	 0.2376590215	 0.080673
