16
gdb 49825	2.65851	1.35503	1.00169	1.346	72.33	-0.2509	-0.0447	0.2063	1148.89	0.1224	-437.866559	-437.858123	-437.857179	-437.900594	30.357	
O	 0.7168105799	-0.2534710038	-0.1570661385	-0.255654
C	 0.3817835884	 0.9022864996	-0.1048033572	 0.156599
C	 1.3237693559	 2.0733056163	-0.1660068204	-0.179486
C	 0.7838043933	 3.3551098539	-0.8791491537	-0.390765
C	 1.0532540333	 4.1593276019	 0.4127284201	 0.368496
O	 1.0029833478	 5.3156697561	 0.7042697744	-0.285651
C	 1.4138627321	 2.8894839379	 1.1579174423	 0.210267
C	 0.9548874847	 2.4707235912	 2.5201674876	-0.290188
N	 2.3598022147	 2.7711063028	 2.2574703508	-0.343025
H	-0.6885975808	 1.1878228854	 0.0287029579	 0.077475
H	 2.3012217797	 1.7432973968	-0.5244875535	 0.1074
H	 1.3346169802	 3.6845116917	-1.7622908431	 0.148158
H	-0.2823666717	 3.3085179618	-1.1273356998	 0.140917
H	 0.4395381664	 3.1951528122	 3.1439973976	 0.146878
H	 0.6462325273	 1.4358520407	 2.6466208087	 0.138084
H	 2.9031106788	 1.9158680856	 2.1576541769	 0.250495
