17
gdb 51530	5.26515	0.71394	0.69834	3.3791	77.	-0.2692	0.0058	0.275	1588.6997	0.133874	-421.80302	-421.794043	-421.793099	-421.837997	32.208	
O	-1.1022942094	 0.8167852911	-0.3387519051	-0.272678
C	-0.5166162621	 1.839353919	-0.1509533127	 0.16205
O	 0.8103250233	 1.8884981624	 0.0797956934	-0.187442
C	 1.4224336718	 3.1536476507	 0.2929682361	 0.157829
C	 2.2936048571	 3.2736451957	 1.5594090901	-0.260627
C	 3.3521503547	 4.0514786186	 0.7001096179	-0.191005
C	 2.6590826867	 3.4567234963	-0.5765426871	-0.260632
C	 3.2602132965	 5.4954213611	 0.8081807741	 0.340358
C	 3.1668836566	 6.691357552	 0.8947211626	-0.480491
H	-0.9891717275	 2.8413491292	-0.1456183787	 0.080095
H	 0.671220902	 3.948557751	 0.2325393006	 0.101535
H	 1.87392049	 3.782769102	 2.4274032604	 0.120751
H	 2.6760125952	 2.292882137	 1.8510329009	 0.127333
H	 4.3853839739	 3.7297965324	 0.8493134439	 0.113199
H	 3.1439503004	 2.5272894204	-0.8835088445	 0.127337
H	 2.5352270662	 4.1140360999	-1.4375662625	 0.120753
H	 3.0982127646	 7.7481180711	 0.9735690605	 0.201635
