14
gdb 45730	2.65851	1.51196	1.17218	4.3217	69.76	-0.2342	-0.0152	0.219	1039.2181	0.101049	-436.692228	-436.684432	-436.683487	-436.725015	29.129	
O	-0.0303866973	-0.0499257328	 0.2959604815	-0.372538
C	-0.0505105936	 1.13038626	 0.0728321001	 0.480358
N	-1.2142684102	 1.8794293664	 0.0566026641	-0.380471
C	-1.2229111299	 3.2704309036	 0.0323946811	 0.019396
C	-0.1304904777	 3.9419771017	-0.3209931029	-0.14086
C	 1.0743784889	 3.1433699671	-0.746891995	-0.11549
O	 1.093241969	 1.8313293415	-0.1223823255	-0.247514
C	 1.1625248774	 3.0115543597	-2.2042819096	 0.357563
C	 1.2298186277	 2.9249713129	-3.4006803192	-0.469765
H	-2.0387479809	 1.3644887975	 0.3176651281	 0.270762
H	-2.1535256887	 3.7392273171	 0.3277298917	 0.131569
H	-0.0892650743	 5.021008785	-0.3439983261	 0.120184
H	 1.9944271118	 3.6105215066	-0.3801815424	 0.137953
H	 1.2909293777	 2.8416655937	-4.4579903561	 0.208853
