20
gdb 104992	2.23529	1.26873	1.06761	3.2198	78.55	-0.2821	0.037	0.319	1234.984	0.169965	-403.150192	-403.140395	-403.139451	-403.185071	36.151	
C	-1.675989097	-1.1046142167	-0.7094714366	-0.398506
C	-0.368609149	-0.4376669415	-0.2288434864	-0.199573
C	-0.0507332859	-0.8999274154	 1.1248046113	 0.268477
N	 0.1953186424	-1.277326482	 2.1896577487	-0.340861
C	 0.803106244	-0.6470966195	-1.2040211455	 0.319388
C	 0.6427073473	 0.127146143	-2.5008129871	-0.1417
O	 0.513592872	 1.5249099156	-2.2879830976	-0.413508
C	 2.2185263751	-0.7866233726	-0.6845393127	-0.327889
C	 1.5017101164	-1.9802257979	-1.2664697672	-0.310289
H	-1.9829025179	-0.6866153645	-1.6705729411	 0.133212
H	-1.5404331839	-2.1831793238	-0.8247386661	 0.136275
H	-2.4820955174	-0.932808682	 0.0077164059	 0.137802
H	-0.5354376601	 0.6450220973	-0.166784283	 0.137472
H	 1.4918336409	-0.104203216	-3.1616760052	 0.092173
H	-0.2670032098	-0.1696272242	-3.0325693922	 0.116717
H	 1.3140859261	 1.8252985105	-1.8434250589	 0.286768
H	 3.0156184311	-0.3363867889	-1.2682720229	 0.107833
H	 2.383859939	-0.7733457384	 0.3863371456	 0.14628
H	 1.1814643823	-2.7517148708	-0.5743996186	 0.133494
H	 1.8124759146	-2.3519896522	-2.2371689102	 0.116433
