19
gdb 75369	2.74539	1.71839	1.37611	1.5145	76.06	-0.2361	0.0186	0.2547	1008.2991	0.161303	-423.046534	-423.039053	-423.038109	-423.07825	29.671	
C	-0.024594695	 1.5144645425	 0.0397809533	-0.496129
C	 0.0123755553	 0.0177688689	-0.0554660515	 0.335809
C	 0.0249405084	-0.6720699048	-1.1980927967	-0.159492
C	 0.0233764551	-2.1810790943	-1.2178977854	-0.275806
C	-0.0925470206	-2.7208964409	 0.213840324	 0.1869
O	-1.4176250855	-2.5201811538	 0.7105699402	-0.278338
C	-1.3837606846	-1.3579477102	 1.5402982941	-0.081967
C	 0.0120812602	-0.7780165687	 1.2385528398	-0.050701
O	 0.7552725455	-1.9910952873	 1.0713302502	-0.247445
H	 0.8540556048	 1.9016198252	 0.5719364546	 0.127396
H	-0.0556913003	 1.9772445632	-0.9501883816	 0.125684
H	-0.9039583211	 1.859841139	 0.5998380002	 0.124074
H	 0.0418214527	-0.1536968169	-2.1540964469	 0.084145
H	-0.8191669714	-2.5641921353	-1.8061760872	 0.117486
H	 0.938130309	-2.5654851894	-1.6905635312	 0.108282
H	 0.1626051409	-3.7819720389	 0.2898237096	 0.087052
H	-2.2031862637	-0.6870061759	 1.2646931339	 0.10794
H	-1.4817261103	-1.6410244589	 2.5964671363	 0.099722
H	 0.4491236108	-0.2243247534	 2.0722142744	 0.085387
