15
gdb 10049	3.54236	1.25476	0.98757	3.0625	66.88	-0.2764	0.0197	0.2961	1138.2625	0.116893	-362.636388	-362.627519	-362.626575	-362.670267	31.041	
O	 0.1254836053	 1.4033168503	 0.0081803805	-0.415405
C	 0.0540544381	 0.0003737677	-0.0351341763	-0.068472
C	-1.4035833097	-0.5244821631	-0.011963092	-0.155815
C	-1.4494187123	-2.0717978523	-0.1076580106	-0.3717
C	-2.8002436153	-2.6009989194	-0.2252875679	 0.292089
C	-3.9234905778	-3.0136842185	-0.3270258135	-0.412247
C	-2.0620439034	-0.0339915988	 1.2012644779	 0.273365
N	-2.5145502455	 0.3919213074	 2.1761947797	-0.323484
H	-0.1996119397	 1.6967606563	 0.8674624834	 0.300948
H	 0.5134624854	-0.3055665596	-0.98017078	 0.124167
H	 0.6193644331	-0.4715955239	 0.7830795721	 0.107903
H	-1.931078582	-0.0976497018	-0.8718005202	 0.148417
H	-0.8556106757	-2.3691114866	-0.980854947	 0.143366
H	-0.9521741399	-2.5018594662	 0.7700169161	 0.150605
H	-4.9150246007	-3.3854890515	-0.4083731021	 0.206261
