22
gdb 60468	4.72447	0.60894	0.56338	2.4896	80.23	-0.2474	0.073	0.3204	1982.6234	0.192431	-441.441915	-441.431398	-441.430453	-441.47866	37.464	
C	-0.0650948836	 0.3606542598	-0.9430019407	-0.399646
C	-0.001733861	-0.1216969679	 0.5026574356	 0.109246
O	 0.2324766304	 0.9411681362	 1.4197837538	-0.429621
C	-1.2599513896	-0.8862627418	 0.9225443941	-0.061193
O	-1.4097256153	-2.0168428206	 0.0928080473	-0.247277
C	-2.5241857695	-2.8185113708	 0.4256658009	-0.074414
C	-2.5472407383	-4.0216893188	-0.4756273521	 0.01593
C	-3.8505208738	-4.613461912	-0.8673358733	-0.246509
N	-3.0283226423	-3.9030659193	-1.8590559503	-0.304742
H	 0.8592784497	 0.8773095043	-1.2145714538	 0.122483
H	-0.2180875076	-0.482746501	-1.6206249714	 0.140921
H	-0.9025644073	 1.0580168633	-1.0805755386	 0.098654
H	 0.8541385559	-0.7957373896	 0.6221776065	 0.100732
H	-0.4138644981	 1.6322494237	 1.2377942852	 0.277726
H	-1.1668044207	-1.1790808265	 1.9801403155	 0.096254
H	-2.1420883668	-0.2231500973	 0.8411617158	 0.068613
H	-2.4648683237	-3.1342064712	 1.4815655009	 0.094044
H	-3.4614029314	-2.2440111776	 0.3107236269	 0.076314
H	-1.6843276203	-4.6756190847	-0.3713929734	 0.100293
H	-3.9355741045	-5.6849144274	-1.0227214284	 0.12192
H	-4.756819289	-4.1388858354	-0.4981118495	 0.109686
H	-3.3966313231	-2.9670768652	-2.014240541	 0.230588
