20
gdb 118026	3.5183	0.73298	0.69217	1.9761	76.32	-0.2481	0.0219	0.27	1655.6863	0.17057	-436.457236	-436.446353	-436.445409	-436.493873	38.375	
N	-0.0875195075	 1.5557320565	 0.0648203832	-0.518227
C	-0.0468601079	 0.09961646	-0.0308411962	 0.033464
C	-1.4493164179	-0.4865663799	 0.1618477764	-0.175074
C	-2.0705336068	-0.1226657102	 1.5055780159	-0.078848
O	-3.3144857825	-0.8046978429	 1.5912540891	-0.423281
C	 0.5851784324	-0.4358634165	-1.3567234052	-0.147567
N	-0.1517268317	 0.0486800306	-2.525424833	-0.497107
C	 2.0194966158	-0.0769997285	-1.395357191	 0.250261
N	 3.1261080437	 0.2580025153	-1.436412937	-0.326061
H	 0.8377604297	 1.9609389951	-0.0405396587	 0.242253
H	-0.6888856651	 1.9469140253	-0.654093559	 0.2311
H	 0.5993292516	-0.256311024	 0.7819137839	 0.0989
H	-2.1058031814	-0.1519111464	-0.647850314	 0.122255
H	-1.4000464142	-1.5793934533	 0.0910871316	 0.104019
H	-1.3934844459	-0.4251483339	 2.3219995188	 0.081299
H	-2.1975282576	 0.9652981621	 1.5768140471	 0.104383
H	-3.7528707582	-0.5246297841	 2.3997323989	 0.285838
H	 0.5165892735	-1.5293846782	-1.3459883465	 0.129775
H	 0.0534020522	 1.0320508007	-2.675334536	 0.234787
H	 0.1573365076	-0.4368546578	-3.3613395784	 0.247829
