12
gdb 11699	4.29008	1.70115	1.38042	5.0097	56.85	-0.277	-0.0563	0.2207	844.6212	0.08256	-418.4754	-418.468805	-418.467861	-418.506505	23.878	
O	 0.0066147293	-0.0229785852	-0.0504945228	-0.244805
C	 0.0474054917	 1.1775186989	-0.1045879961	 0.074651
C	 1.2796467224	 1.9807369313	-0.0393629611	 0.366035
C	 1.4035081472	 3.4125834676	 0.3797969022	-0.328604
C	 1.8003204181	 3.0248872757	-1.0325624428	-0.30215
C	 3.0657640061	 2.2017630973	-0.9556059454	 0.468731
O	 4.1211794914	 2.1613585842	-1.490254259	-0.306267
O	 2.5771677233	 1.3494427202	 0.0307632217	-0.269991
H	-0.8664644401	 1.8045489186	-0.2090978869	 0.086552
H	 0.4807564295	 3.9817322982	 0.4459748243	 0.148821
H	 2.1600227987	 3.6594865093	 1.1169115467	 0.158069
H	 1.3434144025	 3.4385822239	-1.919768281	 0.148959
