14
gdb 17164	4.39502	1.92565	1.58469	3.7731	62.79	-0.2364	-0.0357	0.2007	789.1503	0.107792	-378.600726	-378.594466	-378.593521	-378.631315	23.769	
O	 0.0322520672	-0.0435046303	-0.0230009948	-0.25161
C	 0.1012867743	 1.1550149635	-0.1376090557	 0.023622
C	 1.3736071769	 1.9177489888	-0.0770931908	 0.289647
N	 2.7419378996	 1.3301716278	-0.032851619	-0.373607
C	 2.9850164151	 2.8060334465	 0.0514158176	-0.04022
C	 1.8419099916	 3.1166904715	-0.9692853291	-0.051615
N	 1.1274739443	 4.1238824664	-0.1231235505	-0.347295
C	 1.6867239695	 3.1500136279	 0.8649344819	-0.08152
H	-0.7990453556	 1.791178967	-0.276372257	 0.099278
H	 2.9066956911	 0.8761030373	 0.8682660265	 0.220693
H	 3.98009414	 3.2496132486	 0.1193162051	 0.092174
H	 1.8839099565	 3.1469362156	-2.0576572276	 0.106491
H	 1.6546347845	 5.0004783231	-0.0954851347	 0.216588
H	 1.5340620251	 3.2220643564	 1.9438149983	 0.097373
