21
gdb 80992	2.62059	1.48737	1.1854	3.2851	82.58	-0.2296	-0.0018	0.2278	1133.309	0.182712	-387.11168	-387.103188	-387.102244	-387.144162	33.85	
C	-0.1721655047	 1.526020391	-0.0316847411	-0.437595
C	 0.0062735377	 0.0132071385	-0.0005474626	-0.002742
C	 1.1560431448	-0.5814536174	-0.8977059276	-0.135118
C	 2.119428404	-0.2811482894	 0.2960106438	-0.288602
C	 0.8624427909	-0.6090627492	 1.1622419129	 0.334317
C	 0.7316536919	-0.158638472	 2.5987763314	-0.499198
C	 0.693113781	-2.1159260744	 0.8611716955	-0.378704
C	 0.91266442	-2.0639557879	-0.6687054841	 0.432969
O	 0.8878204482	-2.9672431974	-1.4604164055	-0.338926
H	 0.7664402898	 2.074324915	 0.0849014662	 0.120353
H	-0.6201977421	 1.837051536	-0.9810759445	 0.123461
H	-0.8453633277	 1.8485187558	 0.7701629156	 0.121588
H	-0.9730456217	-0.4603189246	-0.1430562567	 0.071333
H	 1.3431835205	-0.2568910194	-1.9195171376	 0.076321
H	 3.0014460892	-0.9183417215	 0.4119906385	 0.101223
H	 2.4193561364	 0.7660220204	 0.3427942267	 0.10762
H	 0.8613781773	 0.9245259961	 2.6931243432	 0.116788
H	-0.2527513395	-0.4155677245	 3.0068508742	 0.117925
H	 1.4859211374	-0.6404687502	 3.2311255236	 0.119486
H	 1.441180052	-2.7492257379	 1.3498619592	 0.118717
H	-0.2994398353	-2.5081092171	 1.1069693689	 0.118785
