21
gdb 104728	1.91509	1.48197	0.98405	2.0504	74.84	-0.2261	0.0559	0.282	1264.4734	0.179835	-461.334057	-461.323498	-461.322554	-461.369644	39.087	
C	-0.0257947584	 1.3454981966	-0.2186673442	-0.434045
C	 0.1607762285	-0.1171452077	 0.1114508528	 0.394749
O	-0.8811725649	-0.8404605399	-0.4822934436	-0.481364
C	 1.5463279885	-0.7216104315	 0.1700394884	-0.40081
C	 0.7155821577	-0.6037847314	 1.4425256827	 0.214117
C	 1.1728775515	 0.3825902014	 2.5048231481	-0.161553
O	 2.2989185157	-0.0767787664	 3.2504499458	-0.416474
C	 0.1102859058	-1.8627267466	 2.0582513505	-0.161228
O	-0.1103593662	-2.9400593054	 1.1461666367	-0.416851
H	 0.8116518943	 1.9603210769	 0.115492753	 0.114835
H	-0.1116213442	 1.4516915384	-1.3046335918	 0.129591
H	-0.9479850261	 1.7310706553	 0.2279205856	 0.121456
H	-0.8060760805	-1.7634256707	-0.1967637021	 0.290202
H	 1.6758539961	-1.6990675651	-0.2850859819	 0.09048
H	 2.4156519215	-0.0777643213	 0.080068261	 0.116193
H	 1.492554013	 1.316959235	 2.0387266806	 0.11189
H	 0.335444394	 0.6301237648	 3.1757813986	 0.093054
H	 1.9855476706	-0.6550042313	 3.9506689631	 0.285999
H	 0.7469036951	-2.2082886955	 2.885288858	 0.088924
H	-0.8774912852	-1.6328692392	 2.4739479982	 0.12564
H	 0.748142313	-3.2982836664	 0.8980614603	 0.295196
