21
gdb 41802	2.33416	1.91204	1.4536	1.5155	82.29	-0.2351	0.0219	0.257	1009.5328	0.186659	-387.110534	-387.103111	-387.102167	-387.142504	30.189	
C	 0.2009651667	 1.7128265703	 0.1266443167	-0.25243
C	 1.5513733181	 1.9348926476	-0.592163904	-0.215878
C	 2.1783339401	 0.5215647635	-0.5573323191	 0.039131
O	 1.0605501511	-0.3365889661	-0.7381155699	-0.255625
C	-0.017023407	 0.1746738085	 0.0510140027	 0.11285
C	-0.0531648201	-0.5593285593	 1.3966183701	-0.20725
C	 1.0540108075	-0.2078087974	 2.4053154573	-0.263935
C	 2.4771441816	-0.0603606099	 1.9222549061	-0.050162
C	 2.9511627352	 0.2572170674	 0.7158831913	-0.059367
H	 0.2385444689	 2.0590201971	 1.1623461599	 0.106929
H	-0.6103097895	 2.2541235956	-0.3647214675	 0.104419
H	 1.3897836272	 2.2317569396	-1.6325948994	 0.102743
H	 2.1750501723	 2.6925300038	-0.1131061981	 0.101963
H	 2.8389783223	 0.3525481203	-1.4134103733	 0.077309
H	-0.9345500631	-0.0687779318	-0.4959895239	 0.07406
H	-1.0251597513	-0.3868488594	 1.8767795065	 0.088514
H	-0.0025491749	-1.6280201138	 1.1617088049	 0.111203
H	 0.794135061	 0.7281465256	 2.9240914294	 0.113975
H	 1.0371793362	-0.9659683438	 3.1982558348	 0.104644
H	 3.2131119685	-0.1757070054	 2.7173011368	 0.085531
H	 4.0284417192	 0.3832345777	 0.6189129485	 0.081375
