23
gdb 59388	2.683	0.96677	0.93925	0.9108	93.38	-0.2356	0.0575	0.2931	1451.9107	0.202495	-351.123396	-351.112617	-351.111673	-351.158677	40.688	
C	-1.489827714	 0.8813636612	-0.7708858422	-0.383958
C	-1.2285530023	-0.5190568917	-1.3477656963	 0.00665
C	-1.9972061114	-0.7284235934	-2.660705028	-0.387678
C	 0.262258898	-0.732593622	-1.5479973591	-0.000302
C	 1.1784897483	-1.1152738624	-0.4210620882	-0.336732
C	 0.9306182665	-2.1104577892	-1.5512808744	 0.121244
C	 0.1424119589	-3.3787124433	-1.2496318652	-0.463957
C	 1.995636876	-2.2965692955	-2.5030956456	 0.27596
C	 2.8768597977	-2.469972952	-3.3043286012	-0.463368
H	-0.9652384719	 1.0249624317	 0.1787809605	 0.114774
H	-1.145913542	 1.6590377192	-1.4629509456	 0.113186
H	-2.5591589893	 1.0407097751	-0.5973116895	 0.109208
H	-1.5938996261	-1.2505800122	-0.6163067919	 0.070167
H	-1.6619987758	-0.0168047614	-3.4243687203	 0.114598
H	-1.8450843269	-1.7364444187	-3.0577980209	 0.118589
H	-3.0722180852	-0.5784105237	-2.5162065966	 0.108972
H	 0.6950218711	-0.0472032924	-2.2737615392	 0.091109
H	 2.155451814	-0.6516035184	-0.3525832444	 0.120522
H	 0.7268328583	-1.3611459607	 0.535734125	 0.110348
H	 0.8103595569	-4.1516525703	-0.857043791	 0.127614
H	-0.6370035415	-3.2004271111	-0.5052216264	 0.117173
H	-0.3301940246	-3.7749470225	-2.1537444962	 0.127469
H	 3.6559147253	-2.6178784464	-4.0100223435	 0.188414
