17
gdb 30068	3.07602	1.28007	1.01551	3.4888	80.06	-0.218	0.0246	0.2427	1180.0449	0.136128	-380.875183	-380.866415	-380.865471	-380.909131	31.858	
C	 0.2574430209	 1.3866277568	 0.1570030615	-0.355841
N	 0.1037926557	-0.0533832515	 0.0518899831	-0.023925
C	-0.0612297369	-0.76438278	-1.1185576831	-0.129053
C	-0.2337025482	-2.0684200919	-0.7426866601	-0.10114
N	-0.1820614695	-2.182440439	 0.6255786345	-0.30537
C	 0.0174152407	-0.9608368504	 1.0736442246	 0.336853
C	 0.1198863024	-0.6064716788	 2.5319784483	-0.452259
C	 1.412339258	-0.0476971735	 2.9306735346	 0.304801
C	 2.4709752918	 0.4213393182	 3.2533718222	-0.459836
H	 0.9117591059	 1.6291719286	 0.9959333471	 0.164298
H	 0.7124020593	 1.7669669974	-0.7597269924	 0.144209
H	-0.7089100004	 1.8834104211	 0.2993790831	 0.13915
H	-0.0348878573	-0.2759303526	-2.0789953449	 0.122029
H	-0.3851535525	-2.9297217943	-1.3752198128	 0.106538
H	-0.6780217313	 0.0928093697	 2.8190249553	 0.138457
H	-0.0687715399	-1.5348004224	 3.0796032385	 0.169924
H	 3.4116271714	 0.8185372227	 3.5450640905	 0.201166
