20
gdb 106922	3.77898	1.09316	0.97841	3.1114	79.71	-0.2398	-0.0206	0.2191	1271.0991	0.171629	-403.166482	-403.157841	-403.156897	-403.199941	32.912	
C	 0.3032316876	 1.475493073	 0.2797213366	-0.384425
C	-0.1842361779	 0.0792747471	-0.1281263318	-0.253353
C	 0.5208035854	-0.4573340569	-1.3537826545	 0.340123
C	 0.3353671171	 0.241449561	-2.7057463083	-0.288051
C	 0.747861493	-0.7922290738	-3.7750611465	-0.363291
C	 0.6563382103	-2.1597580044	-3.0731064187	 0.420672
O	 0.5010590013	-3.2233468911	-3.6194932556	-0.32409
C	 0.7188578465	-1.9271066782	-1.5954576386	-0.197536
N	 1.8291246363	-1.0609313167	-1.1252999132	-0.359399
H	 1.3800957795	 1.464752598	 0.4744509273	 0.130439
H	 0.1070048433	 2.2181392101	-0.5006564543	 0.116174
H	-0.201830973	 1.8123572945	 1.1895774718	 0.117249
H	-0.0172853872	-0.6198353542	 0.6976306272	 0.112255
H	-1.264687332	 0.0990942153	-0.3194395358	 0.099244
H	-0.7186763057	 0.5138140385	-2.8269155989	 0.115454
H	 0.9135455146	 1.1694406013	-2.7628291733	 0.111035
H	 0.0998447667	-0.7946059668	-4.6534418236	 0.137909
H	 1.7675827225	-0.6370523312	-4.1461770846	 0.130437
H	 0.4055818129	-2.713681537	-0.9180682987	 0.106034
H	 2.4842867688	-0.8636395784	-1.8792725666	 0.233121
