17
gdb 123346	6.63982	0.72297	0.68703	2.7602	80.97	-0.2434	0.0198	0.2632	1594.3102	0.136841	-380.862511	-380.853915	-380.852971	-380.897189	31.364	
C	-0.0089620199	-1.2104090766	-0.0138748592	-0.445639
C	-0.0008764679	-0.0152310126	 0.1158828435	 0.296197
C	 0.0464226768	 1.4340030715	 0.260379275	-0.342254
C	 1.3770647325	 2.0457387914	-0.2503011142	-0.294507
C	 1.4210447355	 3.5330238047	-0.0722864882	 0.335333
N	 1.0114340953	 4.3437227543	-1.048702947	-0.286884
N	 1.150464834	 5.5837841446	-0.5423476158	-0.179448
C	 1.6367897325	 5.5918532387	 0.7213898866	-0.01755
C	 1.8254402483	 4.2717466636	 1.0671778303	-0.283133
H	-0.0309455502	-2.2659280165	-0.1248387526	 0.192101
H	-0.7845939181	 1.892143791	-0.2888706728	 0.1421
H	-0.0964399822	 1.7050545112	 1.3139007932	 0.129884
H	 2.2094375843	 1.5781086243	 0.2845714505	 0.114429
H	 1.4927054862	 1.8048864071	-1.3102449781	 0.128931
H	 0.9124316001	 6.3736305232	-1.1174290455	 0.275061
H	 1.811311655	 6.5114864788	 1.2572818151	 0.132857
H	 2.2059612978	 3.8923450412	 2.0019376391	 0.102521
