19
gdb 69669	3.5185	1.38558	1.16646	1.4766	82.28	-0.2166	0.0202	0.2368	1092.9078	0.160077	-385.843692	-385.836071	-385.835127	-385.875355	31.031	
O	-0.5155497413	 1.4199449769	 0.0243836059	-0.46111
C	-0.1221032014	 0.094615932	 0.0328599284	 0.357959
C	-0.1303227502	-0.7441353255	-1.2077644802	-0.332678
C	-1.048091578	-1.137224676	-0.0454984015	-0.253339
C	-0.1564508156	-1.8179608457	 0.9502432291	 0.344369
C	 0.4685291781	-2.9194607409	 1.3533673254	-0.249771
C	 1.8131000619	-2.517324995	 1.9680749662	-0.232163
C	 2.070221265	-1.0807727415	 1.3908713949	-0.266264
C	 0.6335005316	-0.5616447245	 1.2223303448	-0.09321
H	 0.1226900445	 1.9230639733	-0.4931186022	 0.285946
H	-0.6539823534	-0.2813047112	-2.0396885424	 0.114164
H	 0.7006686935	-1.3858320217	-1.4869396663	 0.112989
H	-2.1211211608	-1.1990595601	-0.1728832524	 0.102657
H	 0.1562169341	-3.950503354	 1.2365959423	 0.091144
H	 1.7756783109	-2.4981662882	 3.067279503	 0.103169
H	 2.611253074	-3.2186397645	 1.7005563784	 0.100171
H	 2.7050352585	-0.4698581961	 2.0389222894	 0.091235
H	 2.5657217576	-1.1702015604	 0.4170604256	 0.097461
H	 0.268584881	-0.065437037	 2.1323751715	 0.08727
