19
gdb 98278	2.7357	1.07103	0.93481	2.2383	68.61	-0.2628	0.0008	0.2636	1344.1059	0.156583	-497.333082	-497.322733	-497.321789	-497.368769	36.661	
C	 0.0651661505	 1.3125151098	 0.0407744142	-0.244756
O	-0.049243618	-0.1197480523	-0.0080509483	-0.226408
C	-1.2923998448	-0.5992285557	-0.0405492434	 0.451137
O	-2.2945451314	 0.077602916	-0.003550824	-0.385283
C	-1.3370524897	-2.1215692529	-0.1072980142	-0.021983
O	-2.6890880584	-2.5247959057	-0.1493118595	-0.445877
C	-0.6216862724	-2.6519064562	-1.3686956217	 0.137177
C	-0.5368454388	-4.1781945274	-1.3663161151	-0.409612
O	-1.2996371563	-2.1603948247	-2.5132669635	-0.44341
H	 1.1339919548	 1.5216490388	 0.0640374943	 0.141306
H	-0.395677169	 1.7597000355	-0.8427003038	 0.152299
H	-0.4240549201	 1.7033486987	 0.9358929163	 0.146505
H	-0.8395545636	-2.5159547458	 0.7920187486	 0.099677
H	-3.2041343139	-1.7102275655	-0.0338441336	 0.299824
H	 0.3835101407	-2.2208083563	-1.4018742973	 0.100119
H	-0.0948783025	-4.5224643749	-2.3046981597	 0.124058
H	 0.0804013078	-4.5393402431	-0.536620841	 0.110389
H	-1.5343388935	-4.6172088731	-1.2676911568	 0.132505
H	-2.2325923916	-2.3658419854	-2.3639347317	 0.282331
