12
gdb 3120	6.45209	2.15324	1.87689	4.2491	55.72	-0.2801	-0.0046	0.2755	666.1741	0.090424	-323.346816	-323.340968	-323.340024	-323.376413	21.581	
N	 0.0533237184	-1.162273368	 0.1121113496	-0.334876
C	 0.0666544463	-0.0083651304	 0.0358859989	 0.208716
C	 0.0555203507	 1.4134583395	-0.1110374943	 0.315824
C	-0.7269415265	 2.2638835665	-1.1283769476	-0.298593
C	 0.4392176235	 3.312592289	-1.0719909418	-0.239856
C	 1.1541422565	 2.4091899263	-0.0591741098	-0.033856
O	 0.2760669191	 2.2246451679	 1.0492680915	-0.263807
H	-0.8152171474	 1.7844604392	-2.1044497585	 0.133601
H	-1.709372694	 2.5866155669	-0.7804963359	 0.13025
H	 0.9702221551	 3.3956348017	-2.0220817184	 0.123584
H	 0.1923549834	 4.3077113205	-0.6978354084	 0.128286
H	 2.2132123149	 2.262829791	 0.1172008948	 0.130728
