15
gdb 49923	2.74972	1.33823	1.07964	4.4059	68.26	-0.2415	-0.0484	0.1931	1107.0804	0.110211	-457.770658	-457.762456	-457.761512	-457.804308	28.98	
O	-0.6385740198	 0.5698864043	 0.1508554266	-0.241018
C	 0.5315976249	 0.6051499659	-0.1208389683	 0.122452
C	 1.4191992213	 1.8312164232	 0.1389876459	-0.024092
O	 2.7892165694	 1.4451235242	 0.1976609724	-0.249654
C	 3.4911696822	 1.933014878	-0.9285038795	-0.0285
C	 3.906239647	 0.804117725	-1.8808879298	 0.152245
O	 3.4564742257	-0.3081573482	-1.8523953472	-0.224736
C	 2.5233309676	 2.8693824569	-1.6193533935	-0.11485
C	 1.3436985164	 2.8019659781	-1.0115466417	-0.08868
H	 1.080870035	-0.2307660847	-0.6024844391	 0.122072
H	 1.1171756728	 2.2761671173	 1.0961042887	 0.118672
H	 4.411923822	 2.4431193676	-0.6007515016	 0.108485
H	 4.6661090089	 1.1129568261	-2.6354354799	 0.083055
H	 2.7828189317	 3.4664758551	-2.4831519918	 0.127697
H	 0.434631065	 3.3249184113	-1.2754203812	 0.136851
