20
gdb 22321	3.10061	1.0637	0.80769	1.0709	86.5	-0.2237	0.0149	0.2386	1427.414	0.168923	-403.141903	-403.132225	-403.131281	-403.176361	35.915	
C	 0.1099296499	 1.4999442202	 0.018983436	-0.496393
C	 0.0258317203	 0.0054659537	 0.005394843	 0.214159
C	-1.0685964505	-0.7696659711	 0.0427203393	 0.226554
C	-2.5047414364	-0.3530362259	 0.1083647669	-0.496582
C	-0.7217427546	-2.2445488213	 0.0112272302	-0.386793
C	 0.7915151138	-2.2376266037	-0.0537204111	 0.394378
C	 1.2975026606	-0.8133166394	-0.0577044313	-0.38753
N	 1.4693213495	-3.3118643064	-0.0968154208	-0.222809
O	 2.8504650671	-3.0335782042	-0.1526764066	-0.396789
H	 0.6973575304	 1.851242258	 0.877299654	 0.125896
H	 0.6226762992	 1.8713291961	-0.8778889977	 0.125912
H	-0.8708296454	 1.978452383	 0.0661604373	 0.122812
H	-3.0658627286	-0.7409046294	-0.7518679822	 0.125484
H	-2.9915599238	-0.7614852761	 1.0036176202	 0.125473
H	-2.6283865042	 0.7319802386	 0.126304382	 0.123545
H	-1.0902978816	-2.7773516227	 0.8988379357	 0.122556
H	-1.1656992292	-2.7580017342	-0.8529259043	 0.122567
H	 1.8997355127	-0.6076333124	-0.9542670698	 0.126855
H	 1.9723280955	-0.6285680798	 0.7904570653	 0.126824
H	 3.2325089652	-3.9169319331	-0.180845136	 0.303881
