22
gdb 86913	5.3084	0.69161	0.67668	2.2064	84.	-0.2305	0.0781	0.3086	1726.8016	0.193926	-404.29958	-404.290262	-404.289318	-404.334503	35.007	
O	-0.0518349203	 1.3328610305	-0.2723090046	-0.431419
C	 0.0327857625	-0.0490992681	-0.012038595	 0.145603
C	 0.2472258701	-0.5328243578	 1.4504982009	-0.291677
C	-0.8391993418	-1.6152882962	 1.1929521956	 0.040772
C	-1.8242124421	-1.9215734535	 2.3085807359	-0.162501
N	-2.8772023891	-2.8203609243	 1.8457891483	-0.057362
C	-2.6203077937	-4.2489589328	 1.9956260887	-0.218988
C	-3.6017503207	-3.5549501003	 2.8746208072	-0.219362
C	-1.3252552628	-0.7764533893	-0.0218046851	-0.232221
H	 0.8381187154	 1.6991716026	-0.258211822	 0.27964
H	 0.7473474751	-0.537542153	-0.6910043217	 0.062392
H	 1.2457082514	-0.8573847301	 1.7552462889	 0.088381
H	-0.1133785647	 0.2320219249	 2.1465606442	 0.1019
H	-0.3758388381	-2.5478488908	 0.8518215415	 0.068906
H	-1.2823333978	-2.3354296826	 3.1814588362	 0.073634
H	-2.3019803605	-0.9910236912	 2.6411602537	 0.097924
H	-2.9575075601	-4.8826113017	 1.1802699422	 0.11541
H	-1.6784075425	-4.5539246164	 2.450607731	 0.106133
H	-3.3123623395	-3.3989440821	 3.9131597652	 0.106612
H	-4.6697590449	-3.6706036465	 2.7125475844	 0.115692
H	-2.1175505809	-0.0817644387	 0.2736622212	 0.110937
H	-1.628308345	-1.2967608227	-0.9317345765	 0.099593
