18
gdb 71802	3.80193	1.70447	1.55689	1.3938	73.31	-0.2335	0.0727	0.3062	894.2897	0.150953	-401.910663	-401.904402	-401.903458	-401.940765	27.307	
O	-0.1066917435	 1.3565944535	-0.0111869987	-0.477743
C	 0.0401863359	-0.0224002252	-0.0355573061	 0.373885
C	 1.0686122372	-0.7424065822	-0.8982841026	-0.247969
N	 0.7239096674	-2.1360794803	-0.6079542356	-0.125838
C	 0.4944848474	-2.262157465	 0.8917559514	-0.023726
C	-0.6635384154	-3.2289428744	 0.5472602809	-0.225764
C	-0.7915464593	-2.2534260849	-0.6462878949	-0.023428
C	-1.1770705276	-0.90504858	-0.0032221971	-0.109364
C	-0.1983891481	-0.9139720729	 1.1702655235	-0.155715
H	 0.6472869876	 1.7294832326	 0.4587521314	 0.284806
H	 0.9516617117	-0.5291312868	-1.9659568533	 0.108657
H	 2.104857141	-0.5353664482	-0.6056109753	 0.093719
H	 1.3458801021	-2.5511427863	 1.5092199155	 0.068832
H	-0.30435249	-4.2122929946	 0.240362425	 0.1099
H	-1.4985541189	-3.3025106747	 1.2458124445	 0.095434
H	-1.2528023693	-2.5302451094	-1.5948147648	 0.071668
H	-2.1810013556	-0.5090689491	 0.0565259811	 0.094409
H	-0.4394591828	-0.529400432	 2.1516204452	 0.088239
