15
gdb 14940	4.79242	1.42188	1.16403	1.8318	63.1	-0.2541	-0.0398	0.2143	972.6111	0.119869	-399.814883	-399.807671	-399.806727	-399.847117	25.594	
O	-0.090844332	-0.0222145111	 0.0564700358	-0.238273
C	 0.0030356753	 1.1759515039	 0.0047728789	 0.151066
C	 1.3032896574	 1.9466927746	-0.0170254366	-0.126852
C	 1.3719630222	 2.8594482697	-1.2479078535	-0.085827
O	 2.5291047426	 3.6994476734	-1.2172880793	-0.221119
C	 2.9093301508	 4.1530141347	 0.0015456963	 0.134484
N	 2.4642028936	 3.8502843149	 1.1443458157	-0.266642
C	 1.4198928521	 2.840555941	 1.2400192649	-0.170605
H	-0.9067961753	 1.8236273698	-0.0108779893	 0.076347
H	 2.1272432225	 1.228048088	-0.0438710156	 0.113581
H	 1.4448536657	 2.286828428	-2.1750010386	 0.135771
H	 0.4780721865	 3.4958272837	-1.3025370755	 0.117905
H	 3.7219810548	 4.8678288937	-0.109923187	 0.131478
H	 0.4617804537	 3.3419967392	 1.4383520118	 0.116896
H	 1.6266136999	 2.2185487966	 2.1167058821	 0.131789
