21
gdb 121570	6.30214	0.4092	0.39583	1.4376	87.45	-0.2456	0.0393	0.2849	2778.2783	0.178996	-424.17092	-424.159431	-424.158487	-424.210629	37.848	
C	-0.0982412843	 1.2765973076	-0.5405853523	-0.229282
O	-0.0902560926	 0.0169383534	 0.0871700612	-0.226967
C	-1.3284838851	-0.6486269155	-0.001900896	-0.043472
C	-1.1806710476	-1.9985932349	 0.7078931991	-0.356816
C	-2.4094306737	-2.7803366068	 0.6828523858	 0.110372
C	-3.4359122993	-3.4074412765	 0.6415258967	 0.019233
C	-4.6768811027	-4.169133957	 0.6263653853	-0.202374
O	-4.8421675416	-4.8142121174	-0.6227248364	-0.227612
C	-6.0318972777	-5.5655194322	-0.6744173202	-0.217853
H	 0.8976660907	 1.7093345445	-0.4188370448	 0.12794
H	-0.3221897302	 1.1960068976	-1.6161123509	 0.105817
H	-0.8386187807	 1.9547659947	-0.0872224611	 0.104697
H	-2.128766097	-0.0577375517	 0.4728558312	 0.095305
H	-1.6177749513	-0.8053445977	-1.0536410983	 0.099721
H	-0.3649488717	-2.5559582522	 0.2319347687	 0.14073
H	-0.8669493783	-1.8160265371	 1.7428731385	 0.13812
H	-4.6688291251	-4.9131607737	 1.4426886214	 0.113208
H	-5.5317386255	-3.4986088292	 0.8256110048	 0.111405
H	-6.0809022809	-6.0260834653	-1.6635842225	 0.130425
H	-6.0498852713	-6.3595242505	 0.0895999015	 0.104001
H	-6.9234534539	-4.93372499	-0.5309612815	 0.103399
