16
gdb 43939	3.55823	1.5533	1.50786	2.6159	74.98	-0.244	-0.0164	0.2276	923.1799	0.12509	-400.621983	-400.615514	-400.61457	-400.652544	27.23	
N	 0.1023866354	 1.3437651117	-0.4778222329	-0.541046
C	 0.0265763676	 0.1562951879	-0.1032987522	 0.359214
O	 1.0756440076	-0.7654235199	 0.2197817081	-0.329168
C	 0.0534633859	-1.5630933355	 0.9278380339	 0.331867
C	-0.8313505168	-2.8833154529	 0.9469023718	-0.302189
C	-1.9455329165	-1.7186950208	 1.1606736621	-0.141185
C	-1.4938122299	-1.1318885242	 2.4974903227	-0.058437
C	-0.1721821621	-1.0491682549	 2.3533216677	-0.144461
C	-1.0327794465	-0.9334507822	 0.1144947949	-0.080169
H	 1.0725942028	 1.6561523235	-0.5453146459	 0.237761
H	-0.9171000985	-3.4046994346	-0.0084010229	 0.119743
H	-0.6911689161	-3.5735167546	 1.7805781294	 0.114135
H	-2.9994004864	-1.9192130107	 0.9784734421	 0.088702
H	-2.13049594	-0.8845143271	 3.3343620244	 0.114843
H	 0.6076768835	-0.7024365135	 3.014581038	 0.114582
H	-1.11807548	-1.4345059222	-0.8557310112	 0.115808
