19
gdb 35715	2.17645	1.60775	1.01863	4.4092	80.48	-0.2455	0.0298	0.2753	1184.4239	0.159993	-382.041629	-382.033135	-382.032191	-382.075289	31.623	
N	-0.3783671514	-0.6670581174	-1.1601104068	-0.343559
C	-0.2158178161	 0.324757366	-0.5880854669	 0.290592
C	-0.0197535949	 1.572176146	 0.1286236189	-0.156936
C	 0.1441417147	 1.5455827703	 1.6805079353	-0.221889
C	 1.2198612322	 2.6541765161	 1.5398136861	-0.239015
C	 1.3754006812	 2.2861304431	 0.0393197409	 0.034909
N	 2.4433943116	 1.3295303899	-0.1546781894	-0.059981
C	 2.898513158	 1.1239707012	-1.5264886378	-0.215209
C	 3.7375771663	 1.8771108009	-0.5539800254	-0.23131
H	-0.8089816162	 2.2726049205	-0.1603242572	 0.121592
H	-0.7501722981	 1.7649940373	 2.2653102925	 0.112341
H	 0.5744621741	 0.6004335146	 2.0121674235	 0.138917
H	 0.8036690347	 3.6564101208	 1.6705422235	 0.106569
H	 2.1221201567	 2.5556097073	 2.1445923763	 0.116688
H	 1.4196224301	 3.1243017291	-0.6746328543	 0.061948
H	 3.1371221403	 0.0994070695	-1.7918434409	 0.134376
H	 2.4144186769	 1.6982963784	-2.3144456649	 0.115452
H	 3.8144006821	 2.9546241856	-0.6922547491	 0.111874
H	 4.6063883078	 1.4136117008	-0.0965116843	 0.122641
