17
gdb 24119	4.84102	0.91069	0.88024	2.5029	74.18	-0.2408	0.0014	0.2422	1340.2572	0.138129	-418.007972	-418.000218	-417.999274	-418.041602	28.332	
C	-0.0780910992	 1.544940455	 0.2031295385	-0.370179
C	-0.1229905342	 0.0329668169	 0.3614417242	 0.040056
C	-1.3090235215	-0.7271698887	-0.099972067	-0.246171
N	-0.0233528838	-0.8417945124	-0.8133008806	-0.3064
C	 1.288209915	 2.0725611391	-0.0660099812	 0.358047
C	 1.8858520237	 2.7117476284	-1.1017235626	-0.197076
N	 3.2213081339	 2.9551052767	-0.7963207053	-0.254738
C	 3.3635494604	 2.4586204343	 0.3863949798	 0.073461
O	 2.2425754068	 1.9046028309	 0.9071204514	-0.179895
H	-0.7259630434	 1.8491068999	-0.6268613184	 0.114878
H	-0.4846136043	 2.0124821164	 1.1101287669	 0.128305
H	 0.4300865805	-0.3396932683	 1.2208350221	 0.106741
H	-1.6252266703	-1.625267519	 0.422799923	 0.122748
H	-2.1181526902	-0.1685931667	-0.5651258541	 0.109956
H	-0.043727137	-0.2839761741	-1.6646046726	 0.22768
H	 1.4543006376	 3.0192823945	-2.0412264916	 0.121899
H	 4.248366026	 2.4307884571	 1.0026244774	 0.150689
