18
gdb 12817	3.32352	2.10937	1.64289	0.4302	67.6	-0.226	0.0838	0.3098	850.3884	0.154001	-384.917317	-384.909969	-384.909025	-384.948516	28.755	
C	-0.0031209189	 1.4652475131	-0.0611852422	-0.440447
C	-0.0378218688	-0.0384736894	 0.0395918155	 0.398265
C	-0.8656516852	-0.6907825472	 1.1271686918	-0.369814
C	 0.6535967241	-0.7357342713	 1.1824058588	 0.033037
O	 1.2699542227	-1.973919376	 0.9582924595	-0.258698
C	 1.6865277278	-2.1430107422	-0.3895784754	-0.081266
C	 0.5156493223	-1.925712814	-1.3334930665	-0.088491
O	 0.0290060457	-0.5937783329	-1.2507705872	-0.298833
H	 0.9125731561	 1.7957771807	-0.561359064	 0.121724
H	-0.858517607	 1.8255945693	-0.6421104424	 0.127977
H	-0.0454660554	 1.9235170362	 0.9304779313	 0.115545
H	-1.4047823122	-0.0531094271	 1.8196679304	 0.109661
H	-1.3469755718	-1.6372804681	 0.9081129513	 0.120281
H	 1.1736706612	-0.1355652888	 1.9271002061	 0.091613
H	 2.5003310877	-1.4447875542	-0.6392748834	 0.097771
H	 2.064355808	-3.1662903793	-0.4701987873	 0.111306
H	 0.8176959784	-2.0746585379	-2.3747971311	 0.110718
H	-0.2798603246	-2.6499243508	-1.0991548252	 0.099653
