16
gdb 67798	3.22676	1.99724	1.56379	2.6051	71.68	-0.2088	-0.0101	0.1987	856.5703	0.12706	-396.887042	-396.880509	-396.879564	-396.917399	27.374	
N	-0.1292124559	 1.4654965585	 0.0000185384	-0.589006
C	-0.1002846974	 0.0353591949	-0.0863555264	 0.245531
C	 0.7260848615	-0.7297758224	-1.0577606545	-0.155146
C	 0.132293696	-1.8965389976	-1.3254715129	-0.083509
N	-1.0826187906	-2.0953023368	-0.5164065406	-0.175341
C	-0.4351133339	-2.7361275252	 0.6278463243	 0.018082
N	-0.1065118012	-1.9920599593	 1.6089346483	-0.193225
C	-0.5551871695	-0.6746487233	 1.2673301538	-0.029347
C	-1.3866239551	-0.739363591	 0.0286897736	-0.079143
H	 0.7524205189	 1.8279049519	 0.3493489969	 0.23707
H	-0.2825283988	 1.8747222779	-0.9174394783	 0.233636
H	 1.6560299733	-0.3721022532	-1.4809629466	 0.104259
H	 0.4670755157	-2.7088783284	-1.9558662343	 0.122499
H	-0.1999925115	-3.7925301374	 0.5582623777	 0.131224
H	-0.7554984676	 0.0185927938	 2.0725032484	 0.113417
H	-2.380799584	-0.3318806223	-0.1150837378	 0.099002
