13
gdb 133146	2.34482	1.85837	1.04343	5.455	64.63	-0.2689	-0.082	0.1869	1041.9557	0.087375	-497.854366	-497.846619	-497.845674	-497.887087	27.768	
C	-0.0315768089	 1.5274397184	 0.0099799046	-0.506291
C	-0.0085251037	 0.0282813866	-0.0429364999	 0.121649
C	-1.0855468102	-0.7501841998	 0.178892982	 0.07482
F	-2.2740261365	-0.2482243332	 0.4668872912	-0.036894
C	-1.0283738539	-2.2106987138	 0.1194517109	 0.381024
O	-1.9445947453	-2.9602555274	 0.3053961086	-0.320022
O	 0.2210963275	-2.729643809	-0.1830404006	-0.261807
N	 1.3515003714	-1.9621895194	-0.417453055	-0.060651
C	 1.2083539201	-0.6842582075	-0.3441017819	-0.004995
H	 0.6692091585	 1.8973919001	 0.7662425134	 0.154173
H	 0.2754960767	 1.9519922023	-0.9519948244	 0.154178
H	-1.0288939082	 1.8961838455	 0.2501826099	 0.15827
H	 2.1233235626	-0.1302616528	-0.5359343486	 0.146547
