18
gdb 90306	2.96159	1.75844	1.40904	2.7065	77.71	-0.2173	0.0091	0.2264	956.4841	0.148977	-401.881507	-401.874255	-401.873311	-401.912807	29.534	
O	 0.1869262844	 1.3990246334	 0.0759037288	-0.416446
C	 0.101424639	-0.0040725313	 0.0313706835	 0.088578
C	 0.1480856709	-0.7056123884	 1.4514476079	-0.356407
C	-1.3628227322	-0.7001064573	 1.3763010942	 0.263095
C	-2.4610669519	-0.2108117602	 1.9500040387	-0.24876
C	-3.3600509543	 0.3065609449	 0.8647100726	-0.054495
C	-2.8272645996	 1.5169330913	 0.1779964188	-0.228833
N	-2.6249569441	 0.2042168039	-0.4491897307	-0.141516
C	-1.3917591948	-0.5219683463	-0.1124708053	-0.008935
H	 1.0790708275	 1.6343959281	 0.3499786827	 0.28823
H	 0.7933704556	-0.4218341505	-0.7113438443	 0.075491
H	 0.6001915073	-1.7008856654	 1.3920629959	 0.112302
H	 0.6219651965	-0.1384309314	 2.2572240861	 0.107722
H	-2.6455670052	-0.0341465677	 3.0026472206	 0.099552
H	-4.4235184115	 0.08531919	 0.8474639851	 0.092579
H	-3.50783632	 2.1531622382	-0.382122981	 0.110176
H	-1.9792025656	 2.0204153114	 0.6262866441	 0.134173
H	-1.3675499819	-1.4512470725	-0.6947597276	 0.083494
