12
gdb 21059	4.02515	1.90574	1.30406	1.4168	52.55	-0.23	0.0281	0.2581	855.2441	0.083887	-451.836251	-451.829047	-451.828103	-451.867863	25.269	
C	 0.1262094797	 1.4001013719	-0.0694574726	-0.327186
N	 0.0816759514	-0.040398365	-0.0167190233	-0.092009
N	 0.1844818383	-0.8069743383	-1.1833945834	-0.333324
C	 0.1036826289	-2.0030684901	-0.7311235882	 0.50604
O	 0.1509203416	-3.1102140386	-1.4595362019	-0.392078
O	-0.0417098017	-2.1263721334	 0.6057993226	-0.251323
C	-0.0583073083	-0.7942417823	 1.1026355994	 0.490187
O	-0.1740462462	-0.5139243494	 2.2609187631	-0.394172
H	 1.0763840818	 1.7394114681	-0.4920675416	 0.148289
H	-0.6953546056	 1.7873308681	-0.6791035118	 0.148268
H	 0.0279932601	 1.7641495506	 0.9541037281	 0.170167
H	 0.07019889	-3.8692516516	-0.8685936003	 0.327141
