18
gdb 16910	3.85532	1.88223	1.44328	0.5169	67.53	-0.2264	0.0832	0.3096	901.0459	0.154315	-384.915946	-384.908641	-384.907696	-384.947237	28.442	
C	 0.0022024772	 1.5175440017	 0.0584915706	-0.403437
C	 0.0352605032	 0.0006188265	-0.0227397385	 0.119665
C	 0.6855497827	-0.5061002073	-1.305928043	-0.082332
O	 0.6820330234	-1.9255550326	-1.3788721712	-0.262067
C	 0.9602733314	-2.5891584164	-0.1809707307	 0.100118
C	 2.2488943297	-2.4145217246	 0.5899853048	-0.347424
C	 0.9440233199	-1.8555548824	 1.1295928376	 0.058184
O	 0.7895566829	-0.4641472471	 1.0996415269	-0.271423
H	 1.0122528261	 1.9302221665	-0.0263820045	 0.125574
H	-0.615658182	 1.934524086	-0.7423399124	 0.117683
H	-0.4137141796	 1.8319947114	 1.0190199081	 0.130442
H	-0.987789524	-0.4053500191	 0.030905486	 0.07549
H	 0.1350047808	-0.1606221344	-2.186144754	 0.110062
H	 1.712609484	-0.1120300092	-1.3650947508	 0.095758
H	 0.5319220713	-3.5855306125	-0.2140594919	 0.105095
H	 2.68789096	-3.2893856858	 1.0572141328	 0.112131
H	 2.9601502079	-1.6737700799	 0.2426478072	 0.123952
H	 0.4826997351	-2.3175603506	 2.0002084829	 0.092528
