24
gdb 22164	5.09267	0.48712	0.47182	0.7326	90.81	-0.2376	0.0183	0.2559	2407.7477	0.214253	-405.528326	-405.516564	-405.51562	-405.567074	41.086	
C	-0.0316064718	 1.5951163872	 0.0266218699	-0.379215
C	-0.0109811088	 0.0645896161	-0.0059295967	-0.166294
C	 0.7100162924	-0.5029835085	-1.233348032	-0.154535
C	 0.7280705009	-2.0343534715	-1.2743375602	-0.181709
C	 1.449695977	-2.590920574	-2.5158863063	-0.278391
C	 1.4946405243	-4.095935421	-2.5525228489	 0.359994
C	 2.2954056128	-4.8512998716	-1.524438117	-0.468554
N	 0.8210848342	-4.6597907737	-3.4820732373	-0.167986
O	 0.9118201335	-6.0630110684	-3.4107504642	-0.402882
H	 0.9845347612	 2.0052023587	 0.0407226245	 0.112855
H	-0.5384437534	 2.0028985875	-0.8551252432	 0.113955
H	-0.5533212586	 1.9696787223	 0.91288951	 0.11098
H	 0.4712918534	-0.3154189266	 0.9045643095	 0.093442
H	-1.040423565	-0.3167924959	 0.0163001331	 0.095728
H	 0.2307276106	-0.1209042252	-2.14538468	 0.094808
H	 1.7422356237	-0.1254614035	-1.254950789	 0.09071
H	 1.2073720401	-2.4156471966	-0.3629822632	 0.095765
H	-0.3007916641	-2.4165154714	-1.2624444886	 0.104771
H	 0.9507685074	-2.2386018013	-3.4236354791	 0.113702
H	 2.4781206092	-2.2025906581	-2.5346179806	 0.100159
H	 1.6339653035	-5.3827303568	-0.8310979939	 0.144861
H	 2.9110261129	-5.6131624685	-2.0107370207	 0.147618
H	 2.9357145085	-4.1812847054	-0.9468987925	 0.116362
H	 0.391829686	-6.334995054	-4.1738750238	 0.303856
