16
gdb 51266	4.3822	1.07795	0.92297	3.2301	74.27	-0.2232	-0.0188	0.2044	1216.1403	0.125204	-437.899985	-437.892416	-437.891471	-437.932563	28.645	
O	 1.9656635971	 4.1093681419	 0.1930877202	-0.299313
C	 1.0775012944	 3.3056536171	 0.0300681615	 0.146188
N	 1.2297097559	 1.9492118319	-0.1193030792	-0.386901
C	 2.4171253707	 1.2190507641	-0.1136196882	 0.416464
C	 2.4919222001	-0.123081468	-0.1379797053	-0.250513
C	 3.9119743005	-0.5415109149	-0.2714978711	 0.020433
O	 4.5467417661	-0.0749049331	-1.4903961105	-0.262658
C	 4.7221518139	 0.6872708047	-0.2951213437	 0.029457
C	 3.7856658669	 1.8797779122	-0.153392663	-0.322799
H	 0.0077328794	 3.5869345454	-0.0222767286	 0.087347
H	 0.3773668105	 1.4176483539	-0.2235568746	 0.256203
H	 1.6526972327	-0.8072889959	-0.1298231959	 0.090454
H	 4.2700331549	-1.4989639258	 0.0928721241	 0.096851
H	 5.7398707071	 0.7448342842	 0.0805897531	 0.098443
H	 3.8733557193	 2.5842173744	-0.9851710383	 0.144908
H	 3.9837257305	 2.4495334079	 0.7591735194	 0.135434
