14
gdb 131624	1.95177	1.73378	0.93763	2.9097	66.38	-0.2608	-0.0604	0.2004	1153.6628	0.100461	-473.819731	-473.811653	-473.810709	-473.853131	28.42	
O	 0.323962404	 1.0051431967	-0.7271867936	-0.392346
C	-0.0345664686	 0.0689356229	 0.26757842	-0.17858
C	-1.4050387227	-0.5082579916	 0.0601161075	 0.336013
C	-2.1887355651	-0.7225558886	-1.0472876293	-0.039838
C	-1.9297951039	-0.4484376512	-2.4630341123	 0.050564
O	-2.7228211588	-0.7153256186	-3.3397207355	-0.273735
C	-3.3641567387	-1.3210883856	-0.4962782102	-0.016638
N	-3.3000568685	-1.4538118647	 0.7979377745	-0.12843
O	-2.0431862887	-0.926455071	 1.1555587579	-0.21209
H	-0.2433839536	 1.7781825604	-0.6340146126	 0.296929
H	 0.7099363895	-0.7334617236	 0.2095858128	 0.156076
H	 0.0197420892	 0.4831891715	 1.2838549053	 0.136452
H	-0.9534720668	 0.0235735301	-2.6804917887	 0.100635
H	-4.2436332372	-1.6506987168	-1.030167706	 0.164986
