17
gdb 87648	2.70146	1.29016	1.11146	3.1784	69.47	-0.2621	-0.0028	0.2593	1154.1771	0.133908	-458.965492	-458.95658	-458.955635	-458.999215	32.475	
C	 0.0739302644	 1.5447362545	 0.2739659101	-0.408305
C	-0.0292886967	 0.0399100043	 0.1618655218	-0.066449
C	 1.1499797148	-0.7788937986	-0.3625240331	-0.374318
C	 0.7519178435	-0.8426013147	 1.0680502503	 0.443299
O	 1.597062539	-0.3050836985	 2.125966062	-0.262927
C	 1.1393512604	-1.2421643813	 3.0204683696	 0.418337
O	 1.3855814213	-1.3349026935	 4.179058256	-0.326198
C	 0.2828513716	-1.9773120219	 1.9621210932	-0.166597
O	-1.1021753454	-2.0220794225	 2.1652963662	-0.419968
H	 1.0726871615	 1.8471885404	 0.6005325882	 0.133577
H	-0.1311673139	 2.0218994042	-0.6895485942	 0.122384
H	-0.6445649979	 1.9319089219	 1.0034237147	 0.13022
H	-1.015942114	-0.3424268401	-0.0870949107	 0.111331
H	 0.96250517	-1.6417441219	-0.9933868991	 0.123684
H	 2.0623861514	-0.2370233776	-0.590639802	 0.131462
H	 0.7061812992	-2.9570154102	 1.6994547064	 0.107635
H	-1.2826441192	-2.6488007343	 2.8745029405	 0.302832
