20
gdb 90297	4.0488	1.08092	0.92891	1.8169	83.59	-0.2188	0.0074	0.2262	1297.0403	0.171349	-403.107366	-403.099	-403.098056	-403.140109	32.767	
C	-0.1028328853	 1.488270025	-0.07644314	-0.323705
N	-0.0320113627	 0.0472854229	 0.0682354884	-0.097781
C	-1.2432321986	-0.6432718316	 0.6299478815	-0.26363
C	-0.2769950371	-1.514975009	 1.3933125732	 0.277621
C	 0.1750650055	-2.7360659764	 1.6403859178	-0.299503
C	 1.7065635085	-2.6958328218	 1.7216564135	 0.127326
O	 2.3246843342	-3.8380655467	 1.1550133882	-0.430049
C	 2.0684249463	-1.3528472153	 0.9923563208	-0.284125
C	 0.8036768963	-0.5001501519	 1.185488746	 0.00814
H	 0.872975387	 1.8725888608	-0.3908657745	 0.123287
H	-0.8310821145	 1.7491925025	-0.8515993155	 0.120823
H	-0.3940146127	 2.0087486671	 0.8558251722	 0.090758
H	-1.8457159179	 0.0206205719	 1.2716540686	 0.097621
H	-1.8970785346	-1.1182828328	-0.1082427238	 0.116905
H	-0.3712202279	-3.6704130801	 1.6947056188	 0.101133
H	 2.0675093518	-2.6864166933	 2.7578722414	 0.095189
H	 2.0160589672	-3.9089976992	 0.2442252143	 0.274349
H	 2.9939589621	-0.9054304851	 1.3642501683	 0.096995
H	 2.1938597358	-1.5711386552	-0.0743269507	 0.103602
H	 0.9096022166	 0.2335624582	 2.0020942815	 0.065044
