16
gdb 44289	3.91847	1.76515	1.55702	3.255	71.68	-0.2503	0.0241	0.2744	861.6746	0.127861	-400.71588	-400.710104	-400.709159	-400.745854	24.697	
N	-0.0427632205	 1.307817295	-0.0161966875	-0.555053
C	-0.0066968288	 0.0465742312	-0.0120079323	 0.431841
O	 1.1429333334	-0.716105153	-0.0153002164	-0.262474
C	 0.7443551299	-2.0915493231	 0.0246145945	 0.096421
C	 0.0667230214	-2.5310331156	 1.3236011216	-0.098381
C	-1.1492805176	-3.0545483836	 0.5875109327	-0.120649
C	-1.2449203911	-1.7379875758	 1.3119762125	-0.066465
C	-1.1746328968	-0.9036528164	 0.0077626517	-0.135549
C	-0.6521860346	-2.2193143982	-0.6428509402	-0.088975
H	 0.9040573805	 1.6928741243	-0.0067661376	 0.220163
H	 1.5597492338	-2.7107510229	-0.3449614519	 0.092048
H	 0.5181895561	-2.8850344979	 2.2400557165	 0.097793
H	-1.6983168549	-3.9780101759	 0.6821961688	 0.103971
H	-1.7677561101	-1.493649883	 2.226151449	 0.10381
H	-2.1170164057	-0.4867607889	-0.3376876104	 0.096433
H	-0.772758645	-2.4381415561	-1.7003165709	 0.085067
