17
gdb 26958	3.09835	1.34429	1.0129	1.4311	77.06	-0.1799	0.0358	0.2157	1163.5721	0.137017	-417.992513	-417.984444	-417.9835	-418.025511	30.753	
N	 0.0612235567	 1.3628362555	 0.0341446596	-0.599546
C	-0.0030980421	-0.020983793	 0.0183137819	 0.313911
C	-1.0562078146	-0.8807595147	 0.1497134441	 0.172856
C	-0.4786251805	-2.2044643275	 0.1645570706	-0.25862
C	 0.8576378799	-2.0363270869	 0.0275491141	-0.030733
O	 1.1651483466	-0.6988752739	-0.0542842223	-0.17204
N	-2.3948602152	-0.4267521926	 0.2353584061	-0.194031
C	-3.4617693321	-1.2940420185	-0.2707631948	-0.225262
C	-3.296038486	-1.0822888217	 1.1911934588	-0.22335
H	 0.6657523029	 1.7431099767	-0.6850246622	 0.250691
H	-0.8739431034	 1.7456051167	-0.0433290443	 0.259376
H	-0.9924203114	-3.1495914364	 0.2520261811	 0.103669
H	 1.6969788445	-2.7071303113	-0.0335429676	 0.129559
H	-4.2555590272	-0.7873700248	-0.8128912312	 0.116901
H	-3.1780889087	-2.2617273095	-0.6771119709	 0.118842
H	-2.8933079383	-1.9043559203	 1.7777812118	 0.119887
H	-3.9666800911	-0.4191845076	 1.7306077053	 0.11789
