16
gdb 61088	4.38173	0.67451	0.60739	2.8341	70.64	-0.2626	-0.0433	0.2193	1731.7438	0.120213	-475.04717	-475.037383	-475.036438	-475.08336	32.766	
C	 0.1255111165	 1.213605652	 0.1174033279	-0.417839
C	 0.1335129972	-0.3139989371	 0.1665986399	-0.032616
C	-1.26964216	-0.9012240978	-0.033769221	 0.162056
O	-2.2874493013	-0.2832372599	 0.1263936655	-0.236125
N	 1.0256640488	-1.0421268208	-0.7242172083	-0.257585
C	 1.881615449	-0.4374148518	-1.415578614	 0.145974
O	 2.7383508729	-1.0722883475	-2.2736021466	-0.196344
C	 2.9474015366	-2.4279533312	-2.1429013418	 0.182471
O	 3.5808781435	-3.0234937183	-2.9541098176	-0.245052
H	 1.0800155737	 1.6338420497	 0.4457036409	 0.122404
H	-0.0923734688	 1.5760338288	-0.8921544235	 0.133855
H	-0.6634576734	 1.5832556784	 0.774619484	 0.150197
H	 0.402170067	-0.6349702799	 1.1883793385	 0.128148
H	-1.2626995062	-1.9724586023	-0.3267477437	 0.098567
H	 2.0639614608	 0.6367932367	-1.4618391708	 0.130992
H	 2.4911593538	-2.8372925492	-1.2331180593	 0.130898
