18
gdb 8212	2.75715	2.41757	1.58942	2.5495	67.52	-0.2486	0.0812	0.3298	865.7479	0.152621	-384.939056	-384.931046	-384.930102	-384.970927	30.059	
C	-0.1466515208	 1.5128068084	 0.0204767026	-0.491468
C	 0.1441776356	 0.0391880881	-0.0009639521	 0.320473
C	 0.4660890059	-0.6603193204	-1.3099790216	-0.131168
O	 0.9556369253	-1.9481613361	-0.9625350268	-0.254665
C	 1.4758872452	-1.9156403953	 0.359280351	-0.131167
C	 0.7855125498	-0.7580735497	 1.059195696	 0.320472
C	 1.2856278455	-0.2677070637	 2.3881112235	-0.491468
O	-0.6388241437	-0.8083728086	 0.8591647804	-0.327572
H	 0.6710461906	 2.0783062203	-0.4385483538	 0.124669
H	-1.0617913837	 1.7309353045	-0.5408657843	 0.133653
H	-0.2896131648	 1.870143699	 1.0425076179	 0.132753
H	-0.4121381925	-0.7962563242	-1.9507551262	 0.11409
H	 1.2175527253	-0.0757085692	-1.8671914573	 0.088117
H	 1.2677865574	-2.8846432689	 0.8262746367	 0.11409
H	 2.5670230887	-1.7532947154	 0.3635639075	 0.088117
H	 2.3474028621	-0.0056570639	 2.3325510853	 0.124669
H	 0.7250019882	 0.6089085479	 2.7196511093	 0.132753
H	 1.171601616	-1.0455061629	 3.151126892	 0.133653
