19
gdb 114142	4.77136	0.92995	0.87534	4.845	81.67	-0.2575	0.0006	0.2581	1367.6516	0.159478	-382.044552	-382.035812	-382.034868	-382.078136	32.697	
C	-0.0993884987	 1.6401595371	-0.1876391002	-0.379394
C	 0.0318089146	 0.117623307	-0.0747028706	-0.204286
C	-1.3071857559	-0.5688467058	 0.1412868172	 0.086235
C	-1.3758999257	-2.0903298858	 0.4519270868	-0.351107
C	-2.1341989605	-1.7034121201	 1.7258948976	 0.212273
C	-1.3332692193	-0.7643337034	 2.5471059365	-0.273164
N	-2.0713980244	-0.207616163	 1.4075636197	-0.162182
C	-3.3185107298	-2.3509892766	 2.2027078703	 0.204922
N	-4.2606516685	-2.9086618567	 2.5771691549	-0.337523
H	 0.8775117631	 2.1094796084	-0.3345665784	 0.116879
H	-0.7367737352	 1.9188460581	-1.0334549199	 0.121719
H	-0.5477185389	 2.0627057326	 0.7164064129	 0.137081
H	 0.4716937296	-0.2932421165	-0.9928459458	 0.108036
H	 0.7305974142	-0.1395867993	 0.7305679894	 0.098614
H	-1.9754705082	-0.3202514934	-0.6880274178	 0.099236
H	-1.9784359859	-2.6509925328	-0.2626445974	 0.134232
H	-0.4328831074	-2.6185162244	 0.6178736904	 0.116075
H	-1.7492316455	-0.4576233466	 3.5010540936	 0.146435
H	-0.2496508075	-0.845111619	 2.5236568506	 0.125919
