16
gdb 124287	4.43757	1.02694	0.84263	2.2878	73.83	-0.2584	-0.0576	0.2008	1335.8096	0.122549	-437.915217	-437.906344	-437.9054	-437.949662	30.962	
C	-0.0687290048	 1.5042794017	 0.0645555042	-0.482419
C	 0.03210726	 0.0073903903	-0.1170131672	 0.315831
O	 1.0755525307	-0.565760055	-0.345148095	-0.298031
C	-1.2271281117	-0.7850679466	-0.0059202059	 0.28777
N	-2.3823155336	-0.2052690612	 0.2406375948	-0.191828
O	-3.3098182157	-1.2280395768	 0.2738903296	-0.208288
C	-2.6913863473	-2.4114830598	 0.045323376	 0.449202
C	-3.5525274876	-3.6233173124	 0.0469527849	-0.491509
C	-1.3636376489	-2.1949288007	-0.1403446612	-0.427378
H	 0.9211978036	 1.9481198547	-0.0427654227	 0.138564
H	-0.7579876147	 1.9286607667	-0.6722029791	 0.15476
H	-0.4859538622	 1.7381786508	 1.0490398582	 0.154761
H	-4.3286627811	-3.553207212	-0.7219645507	 0.154826
H	-2.9488663326	-4.5113862972	-0.1473399549	 0.148056
H	-4.0542042222	-3.7459801042	 1.0122476359	 0.15482
H	-0.5835193718	-2.9080281982	-0.3423550172	 0.140864
