15
gdb 80163	2.51245	1.68602	1.40927	5.3526	67.85	-0.2331	-0.0571	0.176	954.6897	0.113752	-453.948954	-453.941357	-453.940412	-453.980982	29.147	
O	-0.1352256671	 1.4515524448	 0.0473447136	-0.40356
C	-0.0330099323	 0.065749963	 0.0525213588	 0.087016
C	-0.47035119	-0.7472571806	 1.2486565262	-0.088341
N	-1.2054568571	-0.0735411085	 2.2832140357	-0.304088
C	-2.3680276248	 0.5163322898	 1.8294986453	 0.27485
N	-3.1066072079	 1.3115700714	 2.4895440026	-0.535247
C	-2.5725669547	 0.0315878163	 0.3969634335	 0.383115
O	-3.5729312112	 0.2114918484	-0.2463346566	-0.318996
C	-1.335623998	-0.7182765104	-0.0011343498	-0.229816
H	 0.6042979365	 1.8179697603	 0.5447222628	 0.296627
H	 0.7719509419	-0.3517409285	-0.5531349848	 0.107669
H	 0.0778814279	-1.6356847939	 1.542967087	 0.114605
H	-0.7218918065	 0.3540768537	 3.0583114435	 0.2535
H	-3.9094397083	 1.5569484424	 1.9058118857	 0.23597
H	-1.4279181384	-1.5426012781	-0.6954521735	 0.126696
