17
gdb 113630	3.84349	0.88629	0.8405	3.5525	78.58	-0.257	-0.0952	0.1618	1411.6598	0.134204	-417.994812	-417.985509	-417.984564	-418.029768	32.732	
C	 0.6411796816	 1.6254876463	 0.0620502334	-0.378184
C	 0.6106212165	 0.1162248504	-0.1665339365	-0.138625
N	 0.631735028	-0.5663095378	 1.1326022782	-0.070193
C	-0.6117155906	-0.8592264586	 1.7890489547	-0.235115
C	 0.2402824949	-1.9844184747	 1.2536934616	-0.127252
C	-0.2850134359	-2.7514340542	 0.094062394	 0.302614
O	-1.046682903	-2.3395362589	-0.7519238224	-0.297983
C	 0.2181101817	-4.1413033656	 0.0149239408	 0.222464
N	 0.6011347546	-5.2311475397	-0.0392940186	-0.298135
H	 1.5133778337	 1.9122131342	 0.6557419394	 0.13065
H	 0.6823440351	 2.1501239921	-0.8968352167	 0.12277
H	-0.2566006629	 1.9616787656	 0.5908324287	 0.12157
H	-0.2585547751	-0.1635143342	-0.7743044046	 0.131452
H	 1.5081141628	-0.2006331154	-0.709133304	 0.113346
H	-0.6431514744	-0.7145035203	 2.8656378158	 0.134729
H	-1.5409551323	-0.67155327	 1.2528642673	 0.142299
H	 0.8629130753	-2.5592788393	 1.9333183989	 0.123594
