15
gdb 56480	2.85445	1.10097	0.82299	5.0727	71.4	-0.2573	-0.0321	0.2251	1326.5993	0.110493	-453.925769	-453.916423	-453.915479	-453.960704	33.077	
O	 0.0685330925	 1.5123861418	-0.2217591382	-0.414822
C	 0.0478670545	 0.1238811501	-0.0597244223	-0.122361
C	 0.6359614407	-0.5798509074	-1.2016037782	 0.301381
C	 1.1043787615	-1.1964849983	-2.1213561606	-0.455549
C	 0.7644908499	-0.2295451502	 1.2803940734	 0.417598
O	 0.998014327	 0.6582798714	 2.0662111613	-0.333415
N	 1.0261212128	-1.5666254287	 1.4520228666	-0.329808
C	 1.5647339063	-2.2178244951	 2.565240231	 0.084865
N	 1.8052848387	-1.6476679074	 3.6678417055	-0.390638
H	 0.404077017	 1.8492997558	 0.6285879403	 0.302342
H	-0.9917862037	-0.2341447671	 0.0592756753	 0.125576
H	 1.5206082138	-1.717820683	-2.9484375154	 0.210395
H	 0.8835741398	-2.1366029836	 0.6302316208	 0.263703
H	 1.7324560035	-3.2778678985	 2.3384788689	 0.104578
H	 2.1893736658	-2.3212324699	 4.3287230515	 0.236157
