18
gdb 75966	2.19529	1.92599	1.06479	4.1599	75.74	-0.2347	0.0005	0.2352	1104.697	0.150424	-435.326081	-435.317687	-435.316742	-435.35917	31.513	
C	-0.177786429	 1.4364554435	-0.0349138454	-0.332161
N	-0.0469782479	-0.022425306	 0.0099734344	-0.149411
C	 0.1173742258	-0.6801140053	-1.2232875704	 0.437591
N	 0.2085275616	 0.0367011095	-2.278716889	-0.560935
N	 0.2008383673	-2.0625275784	-1.1591200782	-0.3547
C	-0.3674541299	-2.7794942853	-0.0275236161	-0.190632
C	 0.1915657343	-2.1495487714	 1.2386049898	-0.298817
C	-0.0052252244	-0.6436023301	 1.2536649773	 0.414187
O	-0.1044297384	-0.0222515309	 2.2914826429	-0.364042
H	 0.7297688914	 1.8849306133	-0.4443651558	 0.144441
H	-1.0114208724	 1.7124641103	-0.6821044615	 0.142243
H	-0.3458026753	 1.7760737386	 0.9842435935	 0.157689
H	 0.2993037022	-0.545280624	-3.1093702047	 0.204539
H	 0.0906455926	-2.5020172088	-2.0599273437	 0.241883
H	-1.4684498771	-2.7386516007	-0.017817062	 0.112202
H	-0.0773312184	-3.8310774086	-0.1011412006	 0.118502
H	-0.2753984793	-2.5473990241	 2.14093927	 0.136624
H	 1.268789727	-2.3441415916	 1.3036995495	 0.140796
