18
gdb 107737	3.48743	1.35781	1.27437	3.8241	77.18	-0.214	-0.0507	0.1634	1068.623	0.145939	-401.818093	-401.810152	-401.809208	-401.850484	30.885	
C	 0.0410390354	 1.5267116902	 0.0009343378	-0.375065
C	-0.0976227254	 0.0041927599	-0.1157422014	-0.302694
C	 0.6794127285	-0.5646377697	-1.2598948634	 0.459359
O	 0.1814821298	-0.1523311429	-2.6340275207	-0.302415
C	 1.1390399661	-1.093877952	-3.0171164216	 0.263258
N	 2.2317061307	-0.7608469768	-3.5650390299	-0.234004
C	 3.1865666189	-0.9598917476	-2.4157779131	-0.173683
C	 2.2353342412	-1.0651889264	-1.1946644159	-0.134408
C	 1.095078766	-1.8977011056	-1.6790410872	-0.271065
H	 1.0836453074	 1.8131177541	 0.1688729587	 0.122655
H	-0.2976433561	 2.0149359297	-0.9166661726	 0.145381
H	-0.5571928964	 1.9067042263	 0.8337792281	 0.115508
H	 0.2496972235	-0.4864184989	 0.8011274742	 0.113671
H	-1.1505688418	-0.2722776085	-0.2477060068	 0.122499
H	 3.8411251623	-1.842026069	-2.4879886364	 0.110312
H	 3.8158861174	-0.0649055963	-2.4105591471	 0.132431
H	 2.6287321463	-1.1660709694	-0.1851253323	 0.093771
H	 0.7492531261	-2.901687997	-1.4697420205	 0.114488
