19
gdb 92966	2.69149	1.45656	1.03713	3.0971	79.92	-0.2028	0.0103	0.2131	1171.0691	0.160585	-419.264907	-419.256077	-419.255133	-419.298482	33.465	
C	 0.0784503107	 1.578064033	-0.0441033605	-0.39535
C	 0.0243485251	 0.0520560621	 0.0462042983	 0.045939
C	 0.6987897288	-0.6525444707	-1.1689097241	-0.29184
C	 1.9981720752	-1.1742116482	-0.595814398	-0.160802
C	 1.9887164426	-1.0475926763	 0.7318839861	-0.002567
N	 0.8148754846	-0.4441688963	 1.1992907458	-0.105118
C	 0.362297189	-0.3223818284	 2.4906217147	 0.436948
N	 1.1598715686	-0.9289720965	 3.460074434	-0.569227
O	-0.6438065592	 0.3074057604	 2.772716515	-0.404641
H	 1.1113216759	 1.9194233237	-0.1716747504	 0.117043
H	-0.5048007956	 1.9214507973	-0.9050058569	 0.110816
H	-0.3352829074	 2.0221686255	 0.8626332477	 0.152125
H	-1.0121005489	-0.2642001129	 0.1821780393	 0.104758
H	 0.0806700262	-1.4672473493	-1.5689466502	 0.11084
H	 0.8517005347	 0.0562123091	-1.9900370737	 0.111655
H	 2.8038874937	-1.5966417758	-1.177911254	 0.102293
H	 2.7654449979	-1.3102365369	 1.4360300591	 0.127665
H	 1.5819467673	-1.815164619	 3.2246753413	 0.249873
H	 0.6915283608	-0.9375719305	 4.3545662662	 0.259589
