20
gdb 116636	3.99675	0.95231	0.83164	1.417	79.39	-0.2462	0.0154	0.2616	1438.1375	0.171868	-440.297241	-440.288309	-440.287365	-440.332207	32.61	
C	 0.2173900048	 1.5427833868	 0.1021745918	-0.362285
C	-0.0344919221	 0.037497168	-0.0336956297	-0.140139
N	 0.6518069778	-0.4879256907	-1.2072558561	-0.288339
C	 1.6824819629	-1.2040761984	-1.0794658509	 0.382596
C	 2.4569608677	-1.7055103682	-2.2775287621	-0.27878
C	 3.0460970325	-3.0932897834	-2.0158108807	-0.103282
O	 3.7405379596	-3.0803863246	-0.772506975	-0.220119
C	 2.8668793274	-2.7842553212	 0.263445255	 0.012578
O	 2.2489588176	-1.5018993014	 0.1404378764	-0.260632
H	 1.274934455	 1.7424766783	 0.3010469351	 0.119829
H	-0.0591043648	 2.0641597426	-0.8187346965	 0.12394
H	-0.3700220432	 1.9575996494	 0.9274458983	 0.108846
H	 0.2569142244	-0.4745765845	 0.8910367671	 0.100174
H	-1.1073043956	-0.1310483275	-0.1868123483	 0.100038
H	 1.8055287206	-1.6919630785	-3.1528353086	 0.128961
H	 3.2854941608	-1.0092629472	-2.4569132824	 0.132871
H	 2.2525935115	-3.8576621492	-1.9912823881	 0.101592
H	 3.7720943689	-3.375712438	-2.781029575	 0.120331
H	 2.0700585708	-3.5450938396	 0.3303320437	 0.09333
H	 3.4424768633	-2.7530697728	 1.1897404961	 0.128491
