20
gdb 114967	3.03299	1.28807	1.06102	3.7414	78.67	-0.2458	0.0197	0.2655	1199.2703	0.172431	-403.128079	-403.119877	-403.118932	-403.160969	31.477	
C	-0.0762809836	 1.6789337662	 0.0319206177	-0.388136
C	 0.0262137592	 0.151249164	-0.0230488136	-0.182836
C	 0.7526424397	-0.4598517924	 1.1851086526	-0.030528
C	-0.1226599163	-0.4159552286	 2.508897084	-0.174514
N	-0.9449172968	-1.6665525046	 2.5288685942	-0.309777
C	-0.2688402704	-2.4372165204	 1.7960274087	 0.437312
O	-0.5202427871	-3.5562130584	 1.0497074017	-0.275945
C	 0.4857284177	-3.0636395369	 0.0719065549	-0.12947
C	 0.9652716619	-1.99021839	 1.0996760896	-0.167744
H	 0.9171657211	 2.1399776809	 0.0656551856	 0.115304
H	-0.5938495253	 2.06715992	-0.8504267632	 0.117062
H	-0.6298617049	 2.0199771044	 0.9122932537	 0.124377
H	-0.9784945394	-0.2828545245	-0.1026040808	 0.113405
H	 0.5607861126	-0.1345908486	-0.9376707653	 0.0945
H	 1.7025184859	 0.0655490803	 1.3295598254	 0.070667
H	 0.5095910886	-0.3505923445	 3.4038923894	 0.105289
H	-0.7977121013	 0.4436797074	 2.5264282647	 0.114551
H	 1.1979513067	-3.8511507484	-0.1778760614	 0.127195
H	-0.0244605521	-2.6931186454	-0.8194920895	 0.132709
H	 1.8934212437	-2.3074375306	 1.5815983415	 0.106577
