18
gdb 17406	4.46083	1.50856	1.48519	1.6575	71.93	-0.2482	0.0867	0.3349	943.2344	0.153248	-347.758708	-347.751299	-347.750355	-347.790135	28.833	
C	-0.0594335435	 1.5221847061	-0.0718858477	-0.415586
C	-0.0417570336	 0.0233347098	 0.0781163859	-0.029506
O	 1.2471486589	-0.6194437226	-0.0266320462	-0.30473
C	 0.5737451111	-0.6591925577	 1.2199259667	 0.4545
C	 1.244501986	-0.1245449221	 2.5033504392	-0.327151
C	 0.8747675697	-1.451548341	 3.1904898885	-0.04415
C	-0.607246797	-1.6755456567	 3.124588017	-0.279071
C	 0.2246821443	-1.9666115482	 1.8997648976	-0.142147
H	 0.7338091783	 1.9836944736	 0.5219259699	 0.126454
H	 0.086857973	 1.8082260634	-1.1189198723	 0.128418
H	-1.0228288777	 1.928601763	 0.2553279953	 0.11949
H	-0.8325570225	-0.5085403498	-0.4552181015	 0.085541
H	 2.319054523	-0.0084149814	 2.3429525377	 0.121091
H	 0.8439875403	 0.7902850395	 2.9531485652	 0.097412
H	 1.5075523966	-1.9883725719	 3.8854576928	 0.091357
H	-0.975001018	-2.5517801175	 3.6490625605	 0.114513
H	-1.2938806706	-0.8317119307	 3.1343767659	 0.106587
H	 0.2722942217	-2.944463036	 1.4372428552	 0.096978
