19
gdb 79264	2.44708	2.01054	1.55969	1.991	72.69	-0.253	0.0638	0.3168	924.2086	0.161537	-423.032884	-423.025583	-423.024639	-423.063927	30.75	
O	 0.0214283675	 1.4233116819	 0.0245154954	-0.45745
C	 0.0125960387	 0.011485472	-0.0113741005	 0.141548
C	-1.3795993517	-0.5510643555	-0.215714678	-0.074715
C	-1.6050081435	-0.6397877851	-1.7143662146	-0.056778
C	-0.3484786283	-0.1016103838	-2.3849485136	-0.276468
C	 0.6470250279	-0.5748330537	-1.2977522004	 0.322374
O	 1.9916097405	-0.1868883116	-1.4104613012	-0.5143
C	 0.3002630378	-2.0760757695	-1.1529098906	-0.281558
C	-1.1969422537	-1.8792761799	-0.9339546101	-0.067567
H	 0.9380836291	 1.6902004564	-0.1160024843	 0.285886
H	 0.5064875029	-0.4036948938	 0.8809175361	 0.062382
H	-2.1837369053	-0.3750184027	 0.4856152858	 0.087304
H	-2.5913447321	-0.5382506965	-2.1470758124	 0.083503
H	-0.1463781468	-0.5614322719	-3.3599099135	 0.08035
H	-0.3472986958	 0.9860151979	-2.4840933982	 0.1112
H	 2.2992156092	-0.3912820332	-2.2991030004	 0.281927
H	 0.5331810932	-2.6533805985	-2.0551169561	 0.08684
H	 0.8132536083	-2.5346202331	-0.3017029117	 0.10125
H	-1.878163418	-2.7052634995	-0.7771535919	 0.084274
