15
gdb 30606	4.61182	1.07039	0.87353	4.4446	71.27	-0.243	-0.0332	0.2098	1259.4713	0.114262	-454.017893	-454.009803	-454.008859	-454.051284	28.443	
C	-0.0679286695	 1.2969387438	 0.1027596438	-0.243774
O	 0.0238312974	-0.1262110575	-0.0324002667	-0.267657
C	 0.6605310753	-0.5572083312	-1.1542404907	 0.376143
O	 1.1231082076	 0.1817211379	-1.9888319059	-0.374376
C	 0.7018924444	-2.0135676843	-1.1988947362	 0.194739
C	 1.2366470631	-2.8786272973	-2.1302922506	-0.12865
N	 1.0395079845	-4.1768992559	-1.7551197111	-0.255553
C	 0.3908785165	-4.1109694579	-0.6059899801	 0.02878
N	 0.161832866	-2.8322735104	-0.2248880359	-0.311305
H	 0.9280547756	 1.7452912597	 0.1398722183	 0.145111
H	-0.6155416442	 1.729222588	-0.7383828139	 0.145307
H	-0.6011646873	 1.4733325985	 1.0370694051	 0.131487
H	 1.7481528598	-2.6145225677	-3.0426678384	 0.138137
H	 0.068150103	-4.9566919361	-0.0169551695	 0.141422
H	-0.3081753422	-2.5027860997	 0.6021149318	 0.280188
