15
gdb 36684	2.89399	1.00738	0.8129	6.4218	71.3	-0.2871	-0.0029	0.2842	1353.4728	0.111623	-416.798951	-416.790218	-416.789274	-416.83361	30.449	
N	-0.07123826	-1.0216573358	 0.1938908571	-0.285716
C	 0.1653975393	 0.0726764247	-0.0861929401	 0.271847
C	 0.4337601166	 1.4587392005	-0.4728749096	-0.201379
O	 1.2419628452	 2.061613382	 0.5273426059	-0.231597
C	 1.3928080464	 3.4280018639	 0.3585299515	 0.134409
C	 2.6329939832	 4.0193426437	 0.9181720856	-0.315191
C	 2.4665964494	 3.9571635573	-0.6000717913	-0.217476
C	 3.2484989715	 3.0265012943	-1.3599970217	 0.296143
N	 3.8593603331	 2.2738101051	-1.99197879	-0.332763
H	 0.937224038	 1.4715709766	-1.4485120007	 0.171605
H	-0.5257794686	 1.9873185797	-0.575679041	 0.145838
H	 0.4661452715	 4.0015679235	 0.3948794942	 0.113735
H	 2.5882540715	 4.9965201176	 1.3830372118	 0.14228
H	 3.3402942356	 3.323772181	 1.3532144544	 0.165394
H	 2.2481830972	 4.886524646	-1.1152392962	 0.142871
