14
gdb 15294	6.32191	0.99791	0.91093	2.0255	65.06	-0.2662	-0.0527	0.2135	1183.297	0.105832	-378.698675	-378.690817	-378.689873	-378.731741	27.191	
O	-0.0652891972	 0.0263461709	-0.6770223331	-0.251871
C	-0.0076304773	 1.0745045362	-0.0856802289	 0.158819
C	 1.2644621222	 1.8166490977	 0.1311762545	-0.090688
C	 1.221014131	 3.3224315039	 0.0838210238	-0.246554
N	 1.5144127138	 2.6456153288	 1.322476235	-0.072476
C	 0.5251173493	 2.6993861118	 2.3990123793	-0.300869
C	 0.8627461239	 3.7887491595	 3.3224781681	 0.288779
N	 1.1051230167	 4.653050576	 4.0485887494	-0.28962
H	-0.9253245811	 1.5580904766	 0.3175310811	 0.077119
H	 2.1424419971	 1.2946530233	-0.2386802913	 0.129613
H	 2.0419378146	 3.8583326201	-0.382479127	 0.149542
H	 0.2406248358	 3.7849455401	-0.0329840483	 0.130582
H	-0.5112323945	 2.8579669011	 2.0652487194	 0.146579
H	 0.5519137458	 1.752256954	 2.948872888	 0.171044
