20
gdb 38122	2.40029	2.20466	1.56661	1.8489	82.36	-0.2259	0.0043	0.2302	928.6313	0.175542	-365.982944	-365.976319	-365.975375	-366.013371	28.909	
C	 0.0130176693	 1.5904636003	-0.004573099	-0.208633
C	 1.528296964	 2.0221731872	-0.0765355432	-0.280689
C	 2.143884319	 0.710575554	 0.3698581132	 0.34051
C	 1.4133930766	-0.3182468388	-0.4879918272	-0.26288
C	 0.0021663302	 0.0061058007	 0.0440212932	-0.043926
C	-0.0207952135	-0.6336747494	 1.4325344876	-0.052837
C	 1.0571972868	-0.5591721665	 2.2278902469	-0.130955
C	 2.0775333153	 0.4546493593	 1.8279015906	-0.064723
N	 3.3793959272	 0.4060258691	 1.0911601281	-0.454217
H	-0.4732116105	 2.0109594932	 0.8788590628	 0.107239
H	-0.5419526353	 1.9410882596	-0.87902232	 0.099719
H	 1.8112367203	 2.3072200497	-1.0960014029	 0.092019
H	 1.7573727764	 2.8569133433	 0.58883425	 0.10389
H	 1.5342675898	-0.0876746153	-1.5533374756	 0.08965
H	 1.7070402202	-1.3540800034	-0.3122358483	 0.093074
H	-0.8164401355	-0.3910511698	-0.560611721	 0.061486
H	-0.8813823068	-1.2381175899	 1.7087722479	 0.090452
H	 1.1119391196	-1.0761551964	 3.1817308055	 0.089205
H	 2.0680312411	 1.334353681	 2.4723816365	 0.102084
H	 3.6548323559	-0.5502671177	 0.8745729648	 0.229534
