20
gdb 82607	2.404	1.74104	1.38712	2.2355	78.24	-0.204	0.0636	0.2676	1025.5303	0.172269	-403.088967	-403.080835	-403.079891	-403.121343	32.217	
C	-0.1749218326	 1.5693773618	 0.0310341162	-0.444072
C	-0.0448363247	 0.0739899098	-0.1127600896	 0.018942
C	 0.5793920557	-0.7532436204	-1.1896391005	-0.061855
C	 1.6427029344	-0.402737345	-2.211963422	-0.082038
C	 2.4171141075	 0.8738312876	-2.4035574487	 0.079421
O	 1.9444865539	 2.1365506707	-2.0407241571	-0.398378
C	 2.9328154559	-0.1459785144	-1.4241613741	-0.11523
C	 2.4888910714	-0.0665122571	 0.0440768237	-0.191318
N	 1.1652537302	-0.7310850202	 0.1744460838	-0.12297
H	 0.600919062	 2.1283586656	-0.4811895739	 0.15593
H	-1.1409510438	 1.8835173423	-0.3798883239	 0.115574
H	-0.1751584291	 1.8317369471	 1.0963169352	 0.11058
H	-0.9075258364	-0.4254139337	 0.3344077619	 0.084124
H	 0.0568722249	-1.6715966129	-1.4558557301	 0.084932
H	 1.6451428554	-1.0620027902	-3.0737002237	 0.092039
H	 2.950564332	 0.8876561725	-3.3563746697	 0.091375
H	 2.7086425895	 2.6778503367	-1.8130433524	 0.289643
H	 3.8626761592	-0.6602253658	-1.6463429087	 0.08611
H	 3.1999112327	-0.6096119106	 0.6727370469	 0.109455
H	 2.4573049516	 0.9673583861	 0.4102284467	 0.097734
