16
gdb 44842	2.43585	1.8861	1.40863	3.1284	68.44	-0.2339	-0.0547	0.1791	936.657	0.126228	-437.912801	-437.906005	-437.905061	-437.94411	27.093	
O	 0.015515481	-0.0020381036	 0.0122205307	-0.305906
C	-0.0027536647	 1.1964482513	 0.0034181853	 0.409635
C	-1.2356293524	 2.1311514071	 0.0154669987	-0.295113
N	-0.6698324327	 3.4977017533	 0.0705053334	-0.094098
C	 0.5368996705	 3.3448629516	-0.7838921992	-0.213368
C	 1.1949300698	 2.1661152863	-0.0064242569	-0.241361
C	 1.1904217922	 2.7864560466	 1.4042329103	 0.409641
O	 1.9638737459	 2.5943165009	 2.2995740519	-0.305909
C	-0.0553511901	 3.7039727809	 1.40109845	-0.295113
H	-1.8158985192	 2.001126898	-0.9044107289	 0.140943
H	-1.8950323018	 1.9185300688	 0.8603871264	 0.141512
H	 0.2629851773	 3.09464193	-1.8113613117	 0.12776
H	 1.1361590325	 4.2582168019	-0.7862551906	 0.12776
H	 2.1396882161	 1.7246349648	-0.3100388313	 0.111163
H	 0.2471432644	 4.7502675804	 1.5175365402	 0.140944
H	-0.7384439687	 3.4598172819	 2.2182169218	 0.14151
