21
gdb 72605	2.08724	1.86554	1.57999	1.4034	81.46	-0.2344	0.0767	0.3112	1013.9149	0.182439	-387.059733	-387.051282	-387.050338	-387.092036	34.112	
C	-0.0567968833	 1.5778154235	-0.039793249	-0.490853
C	-0.0292553498	 0.0666147453	 0.0229852504	 0.271324
C	 1.0840581243	-0.6640768308	-0.7828986789	-0.277299
C	 1.5516884151	-1.4249979119	 0.4905088824	-0.266922
C	 0.4151284166	-0.7950284653	 1.313106135	 0.382182
O	 0.85022005	-0.2814164148	 2.5388823969	-0.480125
C	-0.9020625051	-1.5446271635	 1.2440636643	-0.123386
C	-2.0605093619	-0.5812790689	 1.3194194908	-0.329724
C	-1.3320685216	-0.7266838406	 0.0163893952	-0.079576
H	 0.9122657634	 1.997536895	 0.2517969158	 0.119972
H	-0.2761193843	 1.924874936	-1.057313962	 0.113753
H	-0.8164231635	 2.0038303074	 0.6240561831	 0.10891
H	 0.7172566966	-1.2918661668	-1.5995490656	 0.093435
H	 1.8408286626	 0.0121388547	-1.1884010921	 0.09761
H	 1.5668158849	-2.5175849813	 0.447793212	 0.093532
H	 2.5212898017	-1.0773071372	 0.8537014268	 0.110903
H	 0.0739113549	-0.0408109346	 3.0559788835	 0.277687
H	-1.0312264933	-2.6058005854	 1.4306878281	 0.082781
H	-3.039785822	-1.0463561094	 1.364792759	 0.114654
H	-1.9919746782	 0.3413166656	 1.8927507977	 0.098821
H	-1.8270086773	-1.100681927	-0.8733547634	 0.082319
