15
gdb 129770	3.52878	1.63057	1.1249	4.5783	75.33	-0.2051	-0.0279	0.1772	1014.027	0.115893	-412.989317	-412.982403	-412.981459	-413.020486	27.01	
N	 0.0478011724	 1.4156008674	 0.1479148398	-0.595158
C	-0.0559082543	 0.0295458505	 0.0442148008	 0.146612
C	-1.1612136615	-0.7931632144	 0.0256011826	 0.32028
C	-2.6538463418	-0.9468902089	 0.0400331195	-0.431719
C	-2.796295433	-2.4652038249	 0.0013884718	-0.122699
C	-1.5913975129	-3.048234822	-0.0272168352	-0.002301
N	-0.6106136729	-2.0421356567	-0.0134043128	 0.066132
N	 0.7207141095	-2.0299687168	-0.0090764285	-0.186892
N	 1.0631135386	-0.7585760932	 0.0177158585	-0.255251
H	 1.0013157037	 1.7101012561	-0.0248312915	 0.255329
H	-0.5863634494	 1.9170204448	-0.4601742721	 0.24538
H	-3.1190732714	-0.5182180604	 0.9375222582	 0.146647
H	-3.1481414737	-0.4745375176	-0.8195386126	 0.138264
H	-3.7452141412	-2.9810131171	-0.0035362214	 0.121765
H	-1.2982992023	-4.0858284767	-0.0563200471	 0.153611
