18
gdb 31708	4.42027	0.9031	0.76046	2.7765	74.6	-0.2381	0.0039	0.242	1489.219	0.147234	-439.122831	-439.113611	-439.112667	-439.157872	32.524	
C	 0.6121415837	 0.710460179	-0.6489404666	-0.388515
C	-0.4489892935	 0.759189296	 0.4532590462	-0.287234
C	-1.6825951547	-0.0250627628	 0.1420432106	 0.262737
C	-2.0060796227	-0.7609935361	-0.9479015875	-0.127768
O	-3.261497271	-1.2925853141	-0.7580675151	-0.17854
C	-3.6322212274	-0.8407651956	 0.4554985795	 0.360437
C	-4.9662032663	-1.2157987097	 1.0183864466	-0.13956
O	-5.1518370825	-0.6411587011	 2.2869590114	-0.421228
N	-2.7537553414	-0.0921411165	 1.0388710168	-0.384877
H	 1.4887743645	 1.2995805634	-0.3672086752	 0.120543
H	 0.9446565606	-0.3160608809	-0.8348228238	 0.122507
H	 0.2258004242	 1.1150174604	-1.5901896303	 0.122482
H	-0.0292811153	 0.3885120337	 1.3970561898	 0.123346
H	-0.7379754059	 1.7990135327	 0.652261596	 0.123342
H	-1.5212800379	-1.0054277733	-1.8761717677	 0.148007
H	-5.756178918	-0.8871678487	 0.3249948914	 0.121438
H	-5.0383897903	-2.3132406731	 1.075801489	 0.121396
H	-4.3501861162	-0.1362151033	 2.4819441488	 0.301487
