14
gdb 16296	3.54684	1.79957	1.47392	1.8765	65.15	-0.2501	0.0117	0.2618	862.3504	0.105461	-382.461223	-382.45399	-382.453046	-382.492527	27.675	
O	 0.0698474256	 1.3888846475	-0.122771757	-0.42887
C	 0.1035200162	 0.0027768729	 0.0147859766	 0.06903
C	 0.306468583	-0.611776165	 1.4553345349	-0.290512
C	-1.0739838614	-1.2490442017	 1.324037022	-0.050777
O	-2.0054118718	-0.1893841727	 1.0751458479	-0.298069
C	-1.2676390648	-0.724073754	-0.0497998525	 0.276667
C	-1.9703946292	-1.217665666	-1.1808380672	 0.157386
C	-2.5169109467	-1.6225580547	-2.1726287959	-0.380168
H	-0.6609970345	 1.6986761199	 0.4279674709	 0.291648
H	 0.8219775692	-0.3847124702	-0.7100613917	 0.107209
H	 1.1251236278	-1.3342878667	 1.4904543352	 0.115649
H	 0.4127261019	 0.1101911403	 2.2683054482	 0.114912
H	-1.4684515037	-2.1567962063	 1.764659163	 0.12196
H	-3.0090649217	-1.9824883832	-3.0422859245	 0.193934
