11
gdb 21296	7.29538	1.40893	1.18981	4.7537	49.04	-0.2742	0.0089	0.283	919.5078	0.071607	-471.68181	-471.675075	-471.674131	-471.713159	23.184	
C	 0.0489844535	 1.3663354338	 0.0071512718	-0.24983
O	-0.0476443892	-0.0732754865	 0.002555277	-0.23832
C	-1.2654627462	-0.5507170691	 0.0110366745	 0.542722
N	-2.3761153241	 0.100490074	 0.0230208386	-0.251756
O	-3.3562212077	-0.9447039381	 0.0271054961	-0.234513
C	-2.7366971689	-2.1456377873	 0.0173504249	 0.522223
O	-3.2334669272	-3.2195579592	 0.0169803446	-0.349532
O	-1.3660179639	-1.8921477875	 0.0065347804	-0.224488
H	 1.115734562	 1.5818887598	-0.0017063826	 0.158558
H	-0.4392947307	 1.777048883	-0.8797755746	 0.162479
H	-0.4230630076	 1.7702452873	 0.9059152892	 0.162456
