17
gdb 46526	3.71435	1.26379	1.11349	5.9345	69.01	-0.2771	0.045	0.3221	1104.5472	0.137044	-458.992263	-458.984514	-458.98357	-459.025075	29.038	
O	 0.009012051	 0.3011706368	 0.8149033067	-0.360941
C	-0.0140806533	 1.2483217597	 0.0883653781	 0.476768
O	-1.1925978832	 1.7829415346	-0.3051670683	-0.258515
C	-1.272241184	 2.8934259106	-1.2159615595	-0.131538
C	-0.0648963645	 3.7731282414	-1.0847269371	 0.294775
C	-0.0912567534	 5.1917993163	-1.5802143717	-0.328541
C	-0.0670818569	 4.9128009142	-0.0967910739	-0.294269
C	 1.1622000954	 2.927044592	-1.2495567806	-0.131451
O	 1.1379581275	 1.8142117052	-0.3384318011	-0.258573
H	-1.3626877778	 2.4960249142	-2.2358768732	 0.118255
H	-2.2004934164	 3.4140034244	-0.9669666291	 0.123982
H	 0.8070976036	 5.5845572195	-2.0449128359	 0.124759
H	-1.012490632	 5.5594534219	-2.0199880289	 0.12476
H	-0.9731446247	 5.0891440555	 0.4723194162	 0.129148
H	 0.8490213171	 5.1143036092	 0.4473475714	 0.129139
H	 1.2359250881	 2.53275512	-2.2720177165	 0.118266
H	 2.0821548734	 3.4729299747	-1.0251443863	 0.123977
