21
gdb 95881	2.17988	1.45556	1.08719	2.4977	78.47	-0.2493	-0.0223	0.227	1207.7503	0.182678	-424.250785	-424.241883	-424.240939	-424.284398	33.613	
C	 0.0132565725	 1.583196928	 0.102037343	-0.407586
C	 0.0119017209	 0.0551370621	 0.0248778398	 0.01884
C	 0.7071617313	-0.4373642383	-1.2497521264	-0.072979
O	 0.7333763008	-1.8557268562	-1.3350461354	-0.245803
C	 1.460853579	-2.4370741709	-0.2745055255	-0.092259
C	 0.8312289392	-2.1029555082	 1.088713597	-0.119021
C	 0.6807997873	-0.5836043555	 1.2561785598	-0.21752
C	-0.4772499115	-2.8547776454	 1.2615297821	 0.168609
O	-1.5159452003	-2.3699878746	 1.6290528417	-0.245695
H	 1.0356492563	 1.9785778592	 0.135538351	 0.111683
H	-0.4881764192	 2.0274346064	-0.7645122565	 0.114065
H	-0.5058937297	 1.9296187149	 1.0012113	 0.12064
H	-1.025188789	-0.2973857341	-0.0131787134	 0.103616
H	 0.1800055366	-0.0905838473	-2.143612902	 0.107772
H	 1.7387127585	-0.0424124143	-1.2917595563	 0.079503
H	 1.4640021391	-3.5177334515	-0.4549150719	 0.107846
H	 2.5076457508	-2.0896904592	-0.2859296031	 0.091641
H	 1.498970509	-2.5118867678	 1.8643391525	 0.096223
H	 1.6771101229	-0.1435206722	 1.3968850546	 0.089167
H	 0.0968663487	-0.3647702136	 2.1549617172	 0.114723
H	-0.4054962834	-3.9447361013	 1.033369362	 0.076537
