17
gdb 131793	5.13129	0.7547	0.69329	3.3823	71.01	-0.217	0.0396	0.2565	1572.7299	0.136374	-455.157477	-455.148342	-455.147398	-455.192327	32.768	
O	-0.0796106654	 1.3942028039	 0.0601349746	-0.419163
C	-0.0419928498	-0.0164357673	 0.2129420581	-0.065466
C	-1.3712563857	-0.5737308918	-0.3005359791	-0.280876
C	-1.4690277521	-2.0598780254	-0.143488777	 0.349748
N	-1.2767358358	-2.8606232232	-1.1864846535	-0.298502
N	-1.4080681566	-4.116268504	-0.6787608587	-0.252317
C	-1.679413299	-4.1127872726	 0.643272736	 0.459855
O	-1.8435560631	-5.2958605309	 1.2743068929	-0.42938
C	-1.7274173307	-2.7948593607	 1.0454139801	-0.446445
H	 0.7735342489	 1.74774748	 0.3274389234	 0.284791
H	 0.7839146283	-0.4647761383	-0.3599853562	 0.096769
H	 0.0978392079	-0.3012489706	 1.2683341577	 0.082217
H	-2.1832301322	-0.0761189223	 0.2416722136	 0.109069
H	-1.4750699193	-0.3178265716	-1.3584402706	 0.124442
H	-1.326345814	-4.9183733642	-1.2794227773	 0.275951
H	-2.0354337255	-5.1257378452	 2.2015272633	 0.313453
H	-1.926017996	-2.4184667257	 2.0360484326	 0.095855
