19
gdb 79838	2.6628	1.68042	1.43613	0.9868	73.75	-0.2192	0.0699	0.2891	993.78	0.159831	-422.989413	-422.981613	-422.980669	-423.021131	31.357	
C	-0.1488752085	 1.5750634145	-0.055842671	-0.423055
C	 0.0652394137	 0.0657334618	-0.016178773	 0.035852
C	 0.7532788954	-0.6316597946	-1.194677655	-0.170044
C	 2.2748046523	-0.4913380603	-1.0565314549	 0.015749
O	 2.8108716562	 0.5608790343	-0.2809516009	-0.268967
C	 2.3720321142	 0.3356411972	 1.0701832518	-0.088263
C	 1.1510441649	-0.5696522133	 0.9315617398	-0.169337
C	 1.5601116907	-1.5098701171	-0.2483466352	 0.346101
O	 1.7104062779	-2.8799389402	-0.236236554	-0.466522
H	 0.7757281241	 2.1049958374	-0.2960691279	 0.138487
H	-0.8887210925	 1.8308839317	-0.8225794566	 0.11206
H	-0.5287153855	 1.9491080827	 0.9019329369	 0.108504
H	-0.8878548507	-0.4374030578	 0.1791140243	 0.079274
H	 0.3066376207	-0.8855048378	-2.1501912998	 0.085681
H	 2.8856134967	-0.76722791	-1.9080437356	 0.104385
H	 3.1689574691	-0.15281924	 1.6541090467	 0.086305
H	 2.1581741904	 1.3089053352	 1.5225413118	 0.109857
H	 0.7975445157	-1.0198507002	 1.8586399382	 0.076187
H	 2.6182954151	-3.0878368034	 0.0115068344	 0.287746
