18
gdb 34380	2.57323	1.67181	1.33313	1.4278	83.14	-0.222	0.0096	0.2317	1025.9412	0.148229	-364.758473	-364.750736	-364.749792	-364.79045	30.805	
C	-0.0266105796	-1.1910796147	-0.0720549198	-0.430125
C	-0.0190679831	 0.0106807484	-0.028478332	 0.285052
C	-0.04704545	 1.4673332107	 0.0163607631	 0.110777
C	-0.3527855348	 2.1993351792	-1.3282053244	-0.289563
C	 0.8560505401	 3.1023569148	-0.9993956919	-0.170048
N	 1.2891708128	 2.1678709608	 0.0757830742	-0.11489
C	 1.4318906599	 2.7666225697	 1.4109689217	-0.234046
C	 0.0433404987	 2.6948576468	 2.0125048223	-0.073716
C	-0.777188345	 1.9852840764	 1.242348669	-0.140875
H	-0.0191133601	-2.2522915105	-0.1098551281	 0.191545
H	-0.2007212312	 1.554050835	-2.19404254	 0.120586
H	-1.329153204	 2.6806566284	-1.3957724603	 0.11043
H	 1.6015239892	 3.2361423355	-1.7888289398	 0.106895
H	 0.5614318486	 4.0909559868	-0.6226282458	 0.095498
H	 2.1597387599	 2.2148251061	 2.0230650562	 0.114851
H	 1.8101079878	 3.7931540008	 1.321242257	 0.108442
H	-0.2155087983	 3.1417665151	 2.9657634066	 0.102489
H	-1.8113375608	 1.7377598807	 1.4475897517	 0.106697
