18
gdb 74779	3.02982	1.42935	1.39227	3.9195	76.55	-0.2247	-0.0066	0.2181	1027.8219	0.150193	-401.990163	-401.982812	-401.981868	-402.021722	29.592	
C	-0.0006356483	 1.4918449992	 0.0456390773	-0.513557
C	-0.0472928197	 0.0033762989	-0.0189303608	 0.350862
C	-0.0493505799	-0.8194095397	-1.0734334422	-0.199515
C	-0.0062072324	-2.2613741843	-0.5518592351	-0.173465
C	-0.8602926079	-2.0966668923	 0.7335982024	-0.211109
C	 0.012243241	-0.9193858002	 1.2208043506	-0.109451
N	 1.3222268241	-1.6139690535	 1.2367446634	-0.30229
C	 1.4093787276	-2.3744343758	 0.0770769222	 0.418226
O	 2.3833127639	-2.9443942767	-0.3509672899	-0.37901
H	 0.9132400174	 1.8388689626	 0.5464423045	 0.12755
H	-0.0277773798	 1.9389084515	-0.9517671289	 0.131758
H	-0.8422101326	 1.8949665388	 0.6234445711	 0.129242
H	 0.005782865	-0.5523678206	-2.1206476034	 0.106863
H	-0.2401922657	-3.0557681239	-1.2558868704	 0.084779
H	-1.8903973957	-1.8098284314	 0.5171767218	 0.1072
H	-0.8276975338	-2.9534073685	 1.4117957713	 0.109864
H	-0.2218796057	-0.4728035458	 2.1869962719	 0.074636
H	 2.1559346425	-1.1514498584	 1.5677502442	 0.247416
