20
gdb 7220	3.45003	1.09155	0.87123	1.9371	80.23	-0.2481	0.0402	0.2883	1377.2431	0.173544	-348.987478	-348.976827	-348.975883	-349.02455	36.855	
C	-0.0881709448	 1.4949407712	 0.0298413001	-0.500932
C	-0.0159461956	 0.0408234576	 0.0127283714	 0.089193
C	 0.0511433384	-1.1624425966	 0.0178957747	 0.029344
C	 0.0695690361	-2.627911318	-0.0174707067	-0.034336
O	-1.2531255428	-3.1540338641	 0.1132593191	-0.423896
C	 0.7875150534	-3.178484879	-1.2770694148	 0.031462
C	 2.2316425322	-2.67089078	-1.3631630645	-0.39415
C	 0.7310950493	-4.7103534295	-1.2934130669	-0.392659
H	 0.7686823307	 1.9259918686	 0.559242632	 0.151897
H	-0.0940047812	 1.9090807924	-0.9843522934	 0.14801
H	-0.9964231246	 1.8403212493	 0.5358402772	 0.151305
H	 0.6035733736	-3.0050908374	 0.8656463257	 0.107582
H	-1.8139730355	-2.6633428269	-0.4975217924	 0.279986
H	 0.2325538011	-2.7966669823	-2.1462948464	 0.067608
H	 2.8175328008	-3.0145414277	-0.5018294179	 0.111879
H	 2.7202360968	-3.0514182058	-2.265643842	 0.111351
H	 2.2742501736	-1.5790184975	-1.3850094947	 0.124334
H	-0.2970248265	-5.0662815918	-1.2042610777	 0.127472
H	 1.1605629073	-5.1030427866	-2.2204589337	 0.105154
H	 1.3054828577	-5.1290682759	-0.4579385192	 0.109396
