18
gdb 54759	2.65855	1.45286	1.17308	3.6076	72.98	-0.2422	-0.0191	0.2231	1101.912	0.146002	-439.020345	-439.011622	-439.010677	-439.054049	32.517	
C	-0.1132869341	 1.5411294779	-0.1480298332	-0.48851
C	 0.0685756536	 0.054562877	 0.0994277322	 0.351771
O	 1.1552659817	-0.4541085278	 0.252110946	-0.294721
C	-1.2313048297	-0.7241709165	 0.1537102918	-0.080848
N	-1.2004171817	-2.2389990304	 0.4130917748	-0.139271
C	-0.9102397686	-1.887366034	 1.8859046353	-0.244716
C	-2.0088419545	-0.870722423	 1.4854901338	 0.327247
O	-2.5478242376	 0.2042968783	 2.170390683	-0.464368
C	-2.6840592495	-2.0772051926	 0.7895065265	-0.230903
H	 0.8506504132	 2.0469988426	-0.083765708	 0.142146
H	-0.551064474	 1.7123667695	-1.1382519606	 0.140776
H	-0.8116848833	 1.9576429203	 0.5868330976	 0.157783
H	-1.8521536883	-0.4625229913	-0.71101533	 0.088502
H	-1.1935116225	-2.687115992	 2.574993746	 0.098226
H	 0.1059165986	-1.5399632446	 2.0568929549	 0.140057
H	-2.8920260862	-0.1019203858	 3.0169915211	 0.287607
H	-3.3387783565	-1.8853262111	-0.0640936216	 0.106941
H	-3.0539171505	-2.8943704266	 1.4139595403	 0.102282
