20
gdb 75571	2.42003	1.66097	1.0918	2.496	82.38	-0.2336	0.0137	0.2473	1149.3838	0.172579	-403.120496	-403.112245	-403.111301	-403.153416	31.937	
C	 0.518157389	 1.4494455154	 0.1372017752	-0.479157
C	 0.039526872	 0.0293619977	-0.0494347737	 0.353664
C	-0.0127548827	-0.5219709715	-1.2645474631	-0.159148
C	-0.4181087107	-1.9242948329	-1.640290451	-0.143311
O	-0.0175883128	-2.9412113311	-0.7411757067	-0.220472
C	-0.8591266521	-3.1144355537	 0.3674264247	-0.101391
C	-0.7426172345	-2.0549421551	 1.4445203155	-0.035294
N	 0.5983742802	-1.6185166065	 1.8399971596	-0.325201
C	-0.3420191345	-0.6380518216	 1.2301688901	-0.123509
H	 1.4080340086	 1.479018615	 0.7786331086	 0.132573
H	 0.7707561	 1.9204529992	-0.8157167897	 0.120268
H	-0.2449987656	 2.0650385754	 0.6311101817	 0.118262
H	 0.2850941154	 0.0958014173	-2.1105927808	 0.078922
H	-1.5102401231	-1.9796086913	-1.8043480767	 0.0939
H	 0.0531724404	-2.176509576	-2.5966829755	 0.111717
H	-1.9157961942	-3.174244292	 0.0498050591	 0.082586
H	-0.5893363554	-4.0841811896	 0.8025487192	 0.110167
H	-1.4731063486	-2.2115323189	 2.241228323	 0.078293
H	 0.6445158139	-1.4775087068	 2.8462079783	 0.228524
H	-0.7905817652	 0.0645943071	 1.9338993925	 0.078608
