19
gdb 70682	2.49531	1.69734	1.26309	1.1442	76.6	-0.2345	0.0212	0.2557	1047.4892	0.159614	-423.003104	-422.995104	-422.99416	-423.035145	32.077	
O	-0.2644991779	 1.4121286276	 0.100213969	-0.470115
C	-0.0553156342	 0.0280346941	 0.0355990779	 0.367949
C	-0.3994004739	-0.6889328839	-1.2595173598	-0.395748
C	-1.3045239824	-0.7879913366	-0.0585420364	 0.074567
O	-1.3349778025	-2.0107039643	 0.6083573065	-0.24399
C	-1.5885362533	-1.870740003	 1.9989170545	-0.131651
C	-0.4900552761	-1.2323471259	 2.8084245385	-0.028443
C	 0.6333994629	-0.6615073704	 2.3754024814	-0.068921
C	 1.0542748137	-0.5146574194	 0.9275850992	-0.314618
H	 0.4440537341	 1.8425595204	-0.3913960467	 0.280217
H	-0.7532015164	-0.0878234134	-2.0896810035	 0.113923
H	 0.1712017276	-1.5711811318	-1.5276836896	 0.121399
H	-2.2511506408	-0.2467042803	-0.0874043893	 0.092335
H	-2.5298541576	-1.3144667562	 2.1579004195	 0.101888
H	-1.7665005657	-2.888591056	 2.3684810652	 0.116438
H	-0.6764142422	-1.266417737	 3.881397004	 0.086345
H	 1.3227184891	-0.2721757936	 3.1205998278	 0.085745
H	 1.3931807055	-1.4819556775	 0.5410363501	 0.121935
H	 1.9164701402	 0.158961897	 0.8582840616	 0.090746
