20
gdb 116375	3.10031	1.16371	0.89229	1.8871	76.91	-0.2472	0.0116	0.2588	1305.8583	0.172289	-440.289841	-440.281081	-440.280137	-440.323721	32.832	
O	 0.0653720867	 1.4333104196	-0.0568932086	-0.423431
C	 0.065690164	 0.0242055862	-0.0134947827	-0.066586
C	-1.3492269487	-0.5521627678	-0.0370372445	 0.10824
C	-1.374797259	-2.0742124951	 0.0003301507	-0.204872
C	-2.770016821	-2.6534193363	-0.2353202072	-0.2233
C	-3.7506642183	-2.3984720288	 0.9141919784	-0.142427
N	-4.126835409	-1.0294695948	 1.2245561807	-0.236485
C	-3.3424955092	-0.050943288	 1.3127081403	 0.114684
O	-1.9990154526	 0.0744675077	 1.0897090034	-0.261672
H	-0.539626991	 1.7179533829	 0.6382863694	 0.288046
H	 0.6110361123	-0.3237775133	-0.8965343506	 0.111161
H	 0.5891483159	-0.3571604788	 0.8788932339	 0.091889
H	-1.8588560606	-0.1973658083	-0.9442443697	 0.091118
H	-0.6918058699	-2.4350603077	-0.7786598183	 0.104745
H	-0.9735573916	-2.4199552434	 0.9618468883	 0.105403
H	-3.1849790599	-2.2451615205	-1.1660387462	 0.10476
H	-2.6982999388	-3.7386252622	-0.3751169232	 0.100451
H	-4.6780460371	-2.9437945172	 0.7086677624	 0.109255
H	-3.3382388006	-2.8406416892	 1.8342556754	 0.113435
H	-3.7274462615	 0.9018610352	 1.6801580982	 0.115588
