16
gdb 46639	2.44492	1.60303	1.42653	3.1486	75.92	-0.2517	0.0148	0.2665	990.214	0.125006	-400.720105	-400.712442	-400.711498	-400.752358	29.51	
N	-0.0905022882	 1.2423807061	 0.2784421416	-0.549661
C	-0.0247947046	 0.0190621119	-0.024890769	 0.425753
O	 1.1181402362	-0.6386763999	-0.3951041964	-0.242756
C	 0.82823567	-1.9458610557	-0.9173146544	-0.107619
C	-0.6394502974	-2.2096832403	-0.6321706	-0.098532
C	-1.0520222495	-2.1752551323	 0.8255998841	-0.226048
C	-0.0985632311	-2.2870381501	 1.8895200574	 0.353726
C	 0.700920761	-2.4037651698	 2.7800273897	-0.455954
C	-1.1730431475	-0.9263086009	-0.0558112633	-0.136025
H	 0.8257771008	 1.6831732182	 0.1833547724	 0.223947
H	 1.025387051	-1.9485465449	-1.9952718388	 0.118028
H	 1.4994386573	-2.6578526536	-0.4274333145	 0.131352
H	-1.2058564924	-2.8208234799	-1.3234967893	 0.110477
H	-2.0121050881	-2.6414607151	 1.0283267984	 0.126653
H	 1.4025894683	-2.4892025434	 3.5724797483	 0.202287
H	-2.1583526759	-0.5268686402	-0.2496810662	 0.124371
