18
gdb 103724	2.30387	1.35371	1.00274	4.4934	73.26	-0.2401	0.026	0.2661	1202.4934	0.147272	-435.244257	-435.234514	-435.23357	-435.278364	36.341	
N	-0.1554087996	 1.4588643686	-0.048861703	-0.557405
C	-0.0044030406	 0.0227394893	-0.0899236255	 0.234223
C	 1.1226480276	-0.5103336073	-0.9597538405	-0.144704
O	 2.3742484954	 0.0162700165	-0.5393213421	-0.414656
C	-0.3263738949	-0.7019079997	 1.1935058503	-0.356243
C	-1.3212652832	-0.7459374612	 0.0244755718	 0.123731
N	-2.5432973466	 0.0133559733	 0.0245844659	-0.573299
C	-1.4307844067	-2.0094811211	-0.6745079591	 0.292887
N	-1.5184545263	-3.0324963717	-1.2075556195	-0.35772
H	 0.6984412203	 1.8605643182	 0.3294344212	 0.245258
H	-0.2391580998	 1.8197611418	-0.9970508827	 0.241616
H	 1.1251063644	-1.6077155517	-0.9762243046	 0.115883
H	 0.9864288648	-0.1674557929	-1.9916922155	 0.120136
H	 2.6035124166	-0.4038284776	 0.2964806631	 0.287317
H	 0.2260850787	-1.6052655493	 1.4299560822	 0.126945
H	-0.6364476738	-0.103554099	 2.0424458634	 0.127282
H	-3.1876942288	-0.3445045686	 0.7223190398	 0.238736
H	-2.3139498376	 0.9757209925	 0.257973005	 0.250011
