15
gdb 2378	4.39168	2.35613	1.76133	3.2097	58.11	-0.2434	0.0445	0.2879	733.8474	0.125231	-341.851538	-341.844167	-341.843223	-341.882845	26.881	
C	 0.2684582686	 1.3533417173	 0.2794294724	-0.399858
C	 0.0153818678	-0.0898540658	-0.0882795195	 0.027696
C	 0.8133474416	-0.7583562863	-1.1698113681	-0.262258
N	 0.9724233773	-1.1333340011	 0.2286176735	-0.115661
C	 2.1291391034	-0.911753798	 0.9870764704	 0.407105
N	 3.2606088564	-1.4712902694	 0.4267618812	-0.535063
O	 2.1315689401	-0.3185928136	 2.0454719205	-0.377894
H	 1.2964222033	 1.6498423849	 0.0552948001	 0.127074
H	-0.4102163081	 2.0017931862	-0.2844115145	 0.11501
H	 0.1044141637	 1.5157519693	 1.3472582272	 0.150158
H	-1.0170499486	-0.4142216813	 0.0340427849	 0.098352
H	 0.3603046523	-1.5066428298	-1.8156562109	 0.118518
H	 1.6097703522	-0.1757259237	-1.628291532	 0.12788
H	 3.1387588772	-2.2158583536	-0.2413982517	 0.257266
H	 4.0285879527	-1.5822835552	 1.0703754464	 0.261675
