20
gdb 92242	2.57739	1.7026	1.32145	0.6497	78.29	-0.2112	0.0623	0.2735	1047.1001	0.171955	-403.084664	-403.076826	-403.075882	-403.116814	31.22	
C	-0.1975312406	 1.5781940431	-0.0298027834	-0.417743
C	 0.0417300667	 0.0765513341	 0.0247091764	-0.077268
C	 1.1694995698	-0.5717390375	-0.8611602142	-0.241146
C	 1.6448994945	-1.4355337405	 0.3511382722	-0.089678
N	 2.8741842149	-0.9140036364	 1.0154793224	-0.327418
C	 2.0494692325	-0.0714672469	 1.9150209644	-0.117848
C	 1.3851418466	-0.7098955889	 3.163235397	-0.104733
O	 0.1381510756	-0.9446689515	 2.4534086927	-0.331815
C	 0.734867036	-0.5374482807	 1.2331710515	 0.478443
H	 0.7346621451	 2.1304702699	 0.1321862223	 0.115637
H	-0.5981650085	 1.8803057474	-1.0032290675	 0.116702
H	-0.9135668737	 1.8913375459	 0.7376153908	 0.122475
H	-0.8996438606	-0.4621631335	-0.1409343633	 0.084475
H	 0.8129347666	-1.1280789146	-1.7301160438	 0.102532
H	 1.9387391295	 0.1370197082	-1.1760928635	 0.110394
H	 1.5416966943	-2.5182054989	 0.2620642396	 0.072036
H	 3.419244618	-1.6222946044	 1.4980694178	 0.215193
H	 2.384766304	 0.9620944418	 2.0257196798	 0.083428
H	 1.8480482559	-1.6427175186	 3.5097433988	 0.097222
H	 1.2307764734	-0.039597898	 4.01631445	 0.109113
