21
gdb 62792	2.89292	1.28297	1.15102	2.1293	78.99	-0.2385	0.0706	0.3091	1178.5664	0.179784	-424.19674	-424.187217	-424.186272	-424.229884	37.748	
C	-0.0580609124	 1.5843476765	-0.0488214928	-0.463434
C	 0.0704164554	 0.0818192145	 0.0613701797	 0.394521
O	-1.0943443448	-0.5992933574	-0.3610981702	-0.475835
C	 1.323390418	-0.7150067861	-0.2011613627	-0.118797
C	 2.5753689719	-0.015080169	 0.3314539257	-0.325746
C	 1.9493140959	-0.0585595634	 1.7782210394	 0.383603
C	 2.6867348571	-1.0210241908	 2.7054366298	-0.441391
O	 1.7239119298	 1.1828669963	 2.4299434587	-0.471631
C	 0.676819921	-0.6784742341	 1.2043901629	-0.107089
H	 0.7900591623	 2.1061101357	 0.3923531428	 0.139822
H	-0.1499293728	 1.8831011359	-1.1015678791	 0.093535
H	-0.9614114119	 1.9103552416	 0.475685722	 0.12586
H	-1.2129184891	-0.4107693835	-1.2985805868	 0.278473
H	 1.3089536092	-1.5334878272	-0.9105643835	 0.082465
H	 3.4845892998	-0.6165021826	 0.2509505778	 0.097881
H	 2.7785988945	 0.9836230485	-0.0655788433	 0.09502
H	 3.6825222561	-0.6311524444	 2.95244347	 0.102559
H	 2.1256887616	-1.1518922242	 3.6361780485	 0.124685
H	 2.8185822672	-2.0008478775	 2.2378040989	 0.124178
H	 2.5549135514	 1.4670635569	 2.8261347801	 0.274287
H	 0.0873434099	-1.4399809257	 1.7021527422	 0.087034
