13
gdb 129985	6.0437	0.97019	0.83635	5.6828	63.67	-0.2414	-0.0148	0.2266	1265.3631	0.090358	-486.094088	-486.086265	-486.085321	-486.126946	28.171	
N	-0.1117019453	 1.3693560691	 0.1242761955	-0.595354
C	-0.0554092767	 0.0186227176	 0.0477132118	 0.526939
N	-1.0580251833	-0.8194732369	 0.038213809	-0.419963
C	-0.3903972911	-2.0198785981	 0.0109492818	 0.493627
N	-1.1436819217	-3.1795475898	-0.0036659099	-0.406412
C	-0.6895829865	-4.481920393	-0.0399699035	 0.149373
O	 0.4623202766	-4.824769361	-0.0673983812	-0.260957
N	 0.9187881038	-1.9701376271	-0.0005037867	-0.198296
O	 1.1459151865	-0.5548547168	 0.0247285852	-0.210153
H	 0.7115936004	 1.8782062381	-0.154155244	 0.280855
H	-0.997414809	 1.7870477961	-0.1093061564	 0.282422
H	-2.1400751059	-3.0211429	 0.0166102243	 0.270326
H	-1.5444962578	-5.1863943882	-0.040870266	 0.087592
