16
gdb 16475	3.0118	2.6193	1.71455	3.3713	68.43	-0.232	0.012	0.2441	789.7401	0.130753	-346.580327	-346.573498	-346.572554	-346.611089	26.454	
C	-0.0078167098	 1.4922109839	 0.0411319593	-0.511225
C	-0.0275975773	-0.0030401699	-0.0401645262	 0.206022
C	-0.9485675172	-0.9012689979	 0.8030878272	-0.108291
C	-1.0855432898	-2.2534052433	 0.0946027327	-0.242774
C	 0.43071249	-2.1174221519	-0.2209244453	-0.186628
C	 0.5308784669	-1.0595941111	 0.953238336	-0.114628
C	 0.5000015929	-0.8785287809	-1.1351422972	 0.391935
O	 1.0206144693	-0.6501866298	-2.1926740802	-0.346587
H	 0.9394823397	 1.8871380036	-0.3385460712	 0.13968
H	-0.8146060964	 1.9293641177	-0.556686936	 0.134606
H	-0.1342291671	 1.8367901703	 1.0724941228	 0.122096
H	-1.6412810698	-0.4329163904	 1.492076357	 0.09704
H	-1.2815268199	-3.0554859606	 0.8112633899	 0.109579
H	-1.7695211613	-2.3376019716	-0.7572795147	 0.104298
H	 1.0745312386	-2.9752775227	-0.3920886106	 0.092614
H	 1.2410672713	-0.9051145255	 1.7508575066	 0.112264
