16
gdb 31582	3.37173	1.16112	0.87174	1.1478	68.73	-0.1664	0.0582	0.2246	1275.511	0.124302	-471.224519	-471.215145	-471.214201	-471.258565	33.479	
C	-0.0109656897	 1.3607457635	 0.0115215158	-0.233928
O	 0.0358725746	-0.0657762643	 0.0351533139	-0.272685
C	 0.6392091029	-0.5881953058	 1.1118385635	 0.4855
N	 1.1742251472	 0.055525863	 2.1186699969	-0.415878
C	 1.6809754577	-0.9319892123	 2.9492846552	 0.188004
N	 2.2775931472	-0.6009235618	 4.174095163	-0.6061
C	 1.4315611433	-2.16650122	 2.4274944417	 0.229163
O	 1.7663205658	-3.4269301377	 2.8259285216	-0.438082
N	 0.7402816944	-1.9328526693	 1.2245177752	-0.39614
H	 0.9984280723	 1.7828855805	 0.0203103987	 0.136572
H	-0.5261219433	 1.6250364752	-0.9126269763	 0.128
H	-0.5574865295	 1.7457879304	 0.8775081449	 0.139016
H	 2.6335236321	 0.3467254533	 4.1432184285	 0.245785
H	 3.0283902925	-1.237540895	 4.41301903	 0.242366
H	 1.1232240843	-3.7389141477	 3.4747519102	 0.301904
H	 0.4752701581	-2.6198427821	 0.5402265672	 0.266503
