21
gdb 107201	3.81318	1.21806	1.10611	1.7809	81.06	-0.2495	0.0821	0.3316	1195.3565	0.183309	-387.078965	-387.070769	-387.069825	-387.111653	32.619	
C	 0.2476083034	 1.4774568781	 0.218274648	-0.38019
C	-0.1813346373	 0.0366750762	-0.0905254856	-0.272413
C	 0.4769448934	-0.5191977457	-1.3297102883	 0.420699
C	 0.1580670397	 0.0555302579	-2.7140354516	-0.303417
C	 0.4659457082	-1.0539640761	-3.725375246	-0.046091
C	 1.8705843331	-1.5796349407	-3.86337478	-0.282516
C	 0.8931474199	-2.2990248332	-2.9642168574	-0.05961
C	 0.923478797	-1.9148716862	-1.5034323852	-0.04798
O	 1.8660348992	-0.8789953037	-1.1773399896	-0.299313
H	 1.3339304032	 1.5362634002	 0.334643535	 0.133853
H	-0.043269614	 2.1638968108	-0.5835918514	 0.117431
H	-0.2140105999	 1.8330956504	 1.1441181739	 0.112264
H	 0.0761026476	-0.6112068212	 0.7544518866	 0.10466
H	-1.2710464945	-0.0127855497	-0.2117249954	 0.097084
H	-0.9069653667	 0.3117148773	-2.7574097729	 0.101098
H	 0.7208101671	 0.9754658938	-2.9061030915	 0.11355
H	-0.1841397435	-1.1354093741	-4.58953222	 0.083755
H	 2.1240164777	-2.0594042362	-4.8027564184	 0.1042
H	 2.6801626671	-1.0438376366	-3.3835100848	 0.133659
H	 0.5390371663	-3.2894423421	-3.2238736888	 0.081661
H	 0.7933953531	-2.6766034193	-0.7384148065	 0.087614
