18
gdb 97828	3.93615	0.7	0.63545	3.4915	83.91	-0.2344	0.0291	0.2635	1791.4985	0.146816	-401.947705	-401.938022	-401.937078	-401.984228	33.623	
C	-0.4049493307	 1.531611234	-0.0393044339	-0.3649
C	 0.2222941944	 0.1361616976	 0.1331927594	-0.314844
C	 0.8989075647	-0.3415227999	-1.0678408094	 0.079268
C	 1.4449498151	-0.715346715	-2.0749540961	 0.076046
C	 2.0972497555	-1.1985679805	-3.2694791425	-0.327508
C	 3.6166616406	-1.5767962075	-3.1822269804	-0.166718
N	 3.2386462381	-2.9262764259	-3.6016947924	-0.316445
C	 1.8856801918	-2.7132238928	-3.6459483979	 0.425152
O	 0.9472600108	-3.4173721366	-3.8865086525	-0.348776
H	 0.3586672984	 2.273104553	-0.2895026875	 0.126349
H	-1.1465028724	 1.5269161907	-0.8426190621	 0.131167
H	-0.8996452145	 1.8438165994	 0.8852103249	 0.11491
H	 0.9348619946	 0.1544710106	 0.9680209245	 0.127937
H	-0.5557855222	-0.5833413855	 0.4188426118	 0.134722
H	 1.8820576612	-0.5599933207	-4.1321823555	 0.127894
H	 4.2680862558	-1.0498473793	-3.8858755242	 0.116112
H	 4.0284608726	-1.5176823966	-2.1713613045	 0.124913
H	 3.7799560863	-3.7670460651	-3.7361851018	 0.25472
