16
gdb 15524	3.0104	1.82786	1.16194	3.8197	71.08	-0.2438	-0.0604	0.1834	994.4554	0.129349	-383.761806	-383.753708	-383.752764	-383.794802	28.111	
C	 0.0526673971	 1.5032156938	 0.0187622006	-0.501524
C	-0.021951744	 0.0141731948	-0.0449219845	 0.183344
C	-1.0817850692	-0.809064675	 0.0297018231	 0.114851
C	-0.6278259048	-2.2411780624	-0.0881919445	-0.15572
O	 0.7908197855	-2.1728170522	-0.2379517745	-0.26663
C	 1.2183317092	-0.822538969	-0.2189746281	-0.134409
C	-2.4876885598	-0.4564196086	 0.1976493839	 0.065446
O	-3.3791908301	-1.2782032386	 0.2532647579	-0.270159
H	 0.6955468659	 1.8196188994	 0.8494081882	 0.144652
H	 0.5072827179	 1.9037150741	-0.8957341836	 0.144652
H	-0.9244609733	 1.971392368	 0.1467339721	 0.142443
H	-0.8864112044	-2.8317371314	 0.8017508191	 0.120906
H	-1.0759333711	-2.747194733	-0.9546468951	 0.12094
H	 1.745877561	-0.5706722999	-1.1546422246	 0.11146
H	 1.935353773	-0.6553864854	 0.6027054203	 0.111452
H	-2.7106532529	 0.6291721854	 0.2743615497	 0.068297
