19
gdb 91470	2.5728	1.63809	1.22549	1.0584	81.62	-0.2422	0.0399	0.2821	1066.8005	0.159112	-385.842041	-385.833954	-385.833009	-385.874199	32.528	
C	-0.1073433274	 1.5065749036	-0.0395204176	-0.418226
C	 0.068045742	 0.0015858903	 0.0462659105	 0.114426
O	 0.9401992391	-0.4963407139	-0.9975011322	-0.297678
C	 1.9181462178	-1.2389904292	-0.2546490087	 0.080229
C	 1.0745782765	-2.0222528647	 0.7768452992	-0.272917
C	 0.8078311716	-0.5599979484	 1.2936584484	 0.187973
C	 2.3034052864	-0.2790492339	 0.8931647369	-0.274046
C	 0.2633465995	-0.2685632524	 2.5914429863	 0.079289
C	-0.1982806523	-0.0229663182	 3.6750310298	-0.355884
H	 0.8398407969	 2.0365026636	 0.0898636199	 0.119592
H	-0.5151506268	 1.7761422851	-1.0180349606	 0.127851
H	-0.8057094758	 1.8462675167	 0.7315603842	 0.126994
H	-0.9125152728	-0.4837795125	-0.0477555114	 0.081331
H	 2.6331904377	-1.6970030412	-0.9350229049	 0.084449
H	 0.2192369269	-2.5897670372	 0.4037479669	 0.106853
H	 1.6654683319	-2.6090874127	 1.4807441793	 0.110326
H	 3.0001566721	-0.7094571728	 1.6131410769	 0.111122
H	 2.5897693251	 0.739827518	 0.6290514081	 0.107925
H	-0.6014624786	 0.1915498999	 4.6336151088	 0.18039
