19
gdb 60032	2.02305	1.19075	0.784	2.4519	77.91	-0.2297	-0.0525	0.1772	1443.1623	0.156455	-419.20827	-419.197944	-419.197	-419.244652	35.66	
C	 0.5255580769	 0.6093410038	 0.3207758333	-0.332598
N	 0.2769463701	-0.5813225193	-0.4839570127	-0.061583
C	 1.1076645063	-1.6942101192	-0.0419629916	-0.320909
C	-1.1264248795	-0.9576155464	-0.5420700521	-0.162311
C	-1.9527880644	-0.036135761	-1.4687284013	-0.237082
C	-3.1049393403	-0.7854935269	-2.1741201269	 0.163555
O	-3.1709783058	-1.9799805543	-2.2479567138	-0.22555
C	-2.4966748564	 1.1607701003	-0.8299745123	 0.260835
N	-2.9697177313	 2.092190962	-0.334596745	-0.319477
H	 1.5886471618	 0.8627481911	 0.2732111732	 0.122961
H	-0.0388881873	 1.4625416712	-0.0624209517	 0.13906
H	 0.2521940886	 0.4733414499	 1.383974734	 0.101195
H	 0.8949881822	-2.0137799185	 0.9954666605	 0.098961
H	 0.9598548309	-2.5552218914	-0.7005558431	 0.124252
H	 2.1612741619	-1.4033630119	-0.0923469851	 0.123377
H	-1.200310033	-1.9574500959	-0.9761070209	 0.136938
H	-1.6064225186	-1.0001961563	 0.4525718091	 0.102358
H	-1.2844086275	 0.2929010082	-2.2801233762	 0.165475
H	-3.8621937347	-0.1222165256	-2.6394426175	 0.120543
