24
gdb 82303	2.17428	1.6377	1.29633	1.5611	87.37	-0.222	0.0726	0.2945	1147.2282	0.217877	-368.402428	-368.393161	-368.392217	-368.435494	37.163	
C	-0.9098652426	 0.9789182986	-0.0201720131	-0.406971
C	 0.0583143862	-0.1964856816	-0.1844610277	-0.00682
C	 1.0382722564	-0.0400467333	-1.338910223	-0.028114
C	 2.2260771496	 0.8387483011	-1.1832262649	-0.256563
N	 2.3508243874	-0.6156230016	-1.0014963051	-0.099998
C	 2.2759373191	-1.0550287204	 0.4033457593	-0.19966
C	 0.9408349195	-0.5692104344	 1.0619217198	 0.272487
C	 1.1777010059	 0.5943970989	 2.044930104	-0.437384
C	 0.2854645915	-1.7157314092	 1.8514945782	-0.4332
H	-0.3843933635	 1.9183694032	 0.1735918475	 0.116841
H	-1.5014387017	 1.1147197544	-0.931648308	 0.11365
H	-1.6129799065	 0.8083001263	 0.8020953291	 0.11339
H	-0.5479118038	-1.081943367	-0.4187269219	 0.072015
H	 0.6642985556	-0.246399377	-2.3394615431	 0.083657
H	 2.7272797884	 1.2233255848	-2.0674298736	 0.111931
H	 2.2965046648	 1.4876847181	-0.3164325312	 0.108668
H	 2.3103173416	-2.1503432721	 0.3940928641	 0.099399
H	 3.1588629239	-0.7090727591	 0.9522837784	 0.09914
H	 1.6268271321	 1.4750576806	 1.5801140483	 0.116462
H	 0.2430824654	 0.9133739866	 2.5177422634	 0.113426
H	 1.8530281307	 0.2704551012	 2.8444678052	 0.112328
H	 0.9128968096	-2.0231752644	 2.6957613904	 0.111222
H	-0.6859240448	-1.4114558525	 2.2583625311	 0.110994
H	 0.1245000052	-2.5937017915	 1.2173054229	 0.1131
