25
gdb 42038	2.63409	1.38753	1.01153	0.1495	91.8	-0.2753	0.0798	0.355	1281.985	0.232866	-352.370243	-352.361826	-352.360882	-352.403296	34.2	
C	 0.01885226	 1.3400744034	-0.5659128933	-0.240997
C	 1.1883342906	 1.7888039445	 0.3511548018	-0.238977
C	 1.4468815729	 0.3025009767	 0.7320201768	 0.045129
C	 1.6837495324	-0.0269903856	 2.2037903539	-0.211404
C	 1.5003923466	-1.5130730215	 2.5620915045	-0.186769
C	 0.0407582947	-1.9252480777	 2.8136534411	-0.176683
C	-0.9098005938	-1.8670459471	 1.6080059935	-0.188345
C	-1.0714009657	-0.4845711934	 0.9510936808	-0.199858
C	 0.0932872339	-0.0925883006	 0.0433489092	 0.024002
H	-0.9316127394	 1.8651370054	-0.4323633229	 0.091436
H	 0.2725963232	 1.3653285958	-1.6289873624	 0.094739
H	 2.0114898165	 2.3267502191	-0.1259248722	 0.092677
H	 0.8502099615	 2.3809693178	 1.2075064928	 0.094115
H	 2.2798600617	-0.1037611648	 0.1465285903	 0.062834
H	 2.7011368896	 0.2920877685	 2.4649399192	 0.087784
H	 1.0148448664	 0.5744549215	 2.8344792149	 0.086109
H	 1.9364199725	-2.1409789582	 1.7723748849	 0.087827
H	 2.072926409	-1.7330150793	 3.4713408909	 0.088472
H	 0.0285421976	-2.9483230569	 3.2104703212	 0.087462
H	-0.3644398869	-1.2883596123	 3.613068612	 0.089944
H	-0.5760564146	-2.5840153329	 0.8443232995	 0.088352
H	-1.8944171535	-2.2192746388	 1.9397811266	 0.087267
H	-1.9843324579	-0.4861140187	 0.3407732659	 0.088895
H	-1.2322136043	 0.2789562774	 1.7250535565	 0.087001
H	 0.211534977	-0.8805491021	-0.7089738156	 0.058987
