22
gdb 74845	2.1979	1.70236	1.32403	1.3054	87.4	-0.2223	0.0218	0.2442	1108.7612	0.193889	-367.208504	-367.199347	-367.198403	-367.241488	36.145	
C	 0.0809026497	 1.4875304155	-0.0036831368	-0.498711
C	-0.0152483226	-0.0067814188	-0.0217494035	 0.295454
C	-0.1281447703	-0.77558767	-1.1110856812	-0.1736
C	-0.0809767131	-2.2210027858	-0.7612761297	-0.084896
N	 1.220752276	-2.6048782319	-0.1316012099	-0.34596
C	 0.0555347485	-2.2776148647	 0.71582773	-0.074613
C	 0.0361590481	-0.8447669818	 1.2674789909	 0.204732
C	 1.2822379614	-0.5415179853	 2.1168339733	-0.424231
C	-1.2440331775	-0.6352558139	 2.0995720364	-0.431406
H	 1.0554034497	 1.8220771367	 0.3732906959	 0.131742
H	-0.0472329051	 1.9019127473	-1.0073686892	 0.122225
H	-0.6775049752	 1.9381867834	 0.6481273276	 0.122645
H	-0.1889648998	-0.407463729	-2.1292939929	 0.087159
H	-0.6170019449	-2.9678951584	-1.3372476601	 0.084126
H	 1.3091197777	-3.6199327612	-0.1635405634	 0.222973
H	-0.3943853027	-3.068840731	 1.3084567274	 0.075617
H	 2.1901050931	-0.7416339193	 1.5432652611	 0.137562
H	 1.29578333	 0.5021299488	 2.4481116324	 0.106053
H	 1.2971669443	-1.1709291771	 3.0136638666	 0.105276
H	-1.2339909282	-1.2762996645	 2.9888346119	 0.108509
H	-1.3319333203	 0.4005154954	 2.4421897088	 0.113466
H	-2.1379362191	-0.8759016744	 1.5153627445	 0.115878
