21
gdb 58578	2.65506	1.2976	1.18906	0.7568	79.89	-0.2265	0.0191	0.2456	1177.3772	0.180513	-424.233517	-424.223812	-424.222868	-424.267718	36.681	
C	 0.018303346	 1.470998602	-0.1964097553	-0.426844
C	-0.0809515551	-0.0336579571	 0.036908375	 0.119722
O	 0.7230244376	-0.4606490041	 1.1351485229	-0.441481
C	-1.5402403131	-0.5493061755	 0.1989317457	 0.332377
C	-2.2425094576	 0.0438426728	 1.4283399426	-0.436944
O	-2.2706098003	-0.1797138803	-0.9872252375	-0.312385
C	-2.7669571402	-1.3346503077	-1.6595593587	-0.131873
C	-2.269394844	-2.4994699496	-0.8511164418	-0.103954
C	-1.5786593076	-2.0588899445	 0.1924172559	-0.115389
H	 1.0532762443	 1.7481593272	-0.4157509753	 0.11935
H	-0.6166514447	 1.767667293	-1.0341675147	 0.141734
H	-0.3023175535	 2.0355436081	 0.6876391684	 0.105201
H	 0.3294741647	-0.553535413	-0.8362920119	 0.087825
H	 0.6076775484	 0.1752123387	 1.8486233851	 0.280392
H	-2.3434132368	 1.1285992135	 1.3356456232	 0.12394
H	-3.243719808	-0.3830434544	 1.5271533545	 0.122166
H	-1.6861991471	-0.1832677093	 2.3434694038	 0.109059
H	-3.8669810921	-1.2971529297	-1.713208736	 0.103069
H	-2.395878881	-1.3507940594	-2.6961275124	 0.105144
H	-2.4655455464	-3.5309720099	-1.1158868224	 0.104842
H	-1.0827452634	-2.6477011607	 0.951728779	 0.114048
