16
gdb 124778	2.62417	1.4086	0.96371	1.8913	66.23	-0.2578	-0.0038	0.254	1170.2871	0.123753	-475.015728	-475.007254	-475.00631	-475.049108	31.543	
C	 0.2203929602	 1.3574060048	 0.4226357499	-0.415268
C	-0.1024862228	-0.0866681396	 0.0293876893	 0.000192
O	-1.5012259744	-0.2832976978	-0.1524268867	-0.421159
C	 0.6539322265	-0.5402388352	-1.1921782288	 0.052257
C	 0.1683400484	-1.1623804021	-2.2972288646	 0.004733
O	 1.1413676373	-1.4262587653	-3.1831626943	-0.176715
N	 2.354311732	-0.9741432552	-2.6610123617	-0.252282
C	 2.0482597616	-0.4614174987	-1.4948767749	 0.377111
O	 2.9834351604	 0.0706395316	-0.6882752276	-0.417835
H	 1.2875068463	 1.4784006799	 0.6244172451	 0.145935
H	-0.0469576882	 2.044343463	-0.3894755743	 0.110911
H	-0.3469845543	 1.6320467578	 1.3157039585	 0.125736
H	 0.1579232808	-0.742141372	 0.8701631397	 0.11305
H	-1.8124841501	 0.404185833	-0.7525247718	 0.280191
H	-0.8252257061	-1.478969511	-2.5713780519	 0.159411
H	 3.8367073225	-0.0098107333	-1.1357375561	 0.31373
