17
gdb 12340	3.07106	2.18858	1.33296	2.8557	70.4	-0.2166	-0.0026	0.214	910.7283	0.143841	-363.921144	-363.913649	-363.912705	-363.952802	28.552	
C	-0.0690067918	 1.5540560695	-0.0019048563	-0.391312
C	 0.0783493638	 0.0329100469	-0.0026987294	-0.111086
C	 0.7450699805	-0.5112006463	-1.2822107926	-0.265625
C	 1.0315368247	-1.9849997627	-1.1701729612	-0.127778
C	 1.2892011168	-2.5150275154	 0.0257883677	 0.025467
N	 1.2742513693	-1.7407673962	 1.1913406552	-0.340997
C	 0.782192957	-0.4542722329	 1.2686681423	 0.42072
O	 0.8614144836	 0.1921501033	 2.2939268237	-0.36845
H	 0.908050982	 2.0396022415	-0.0947069449	 0.120849
H	-0.6913236566	 1.87838381	-0.8414799108	 0.106381
H	-0.5211650196	 1.898062928	 0.9296008703	 0.139058
H	-0.9236450506	-0.4214015514	 0.0558287933	 0.107186
H	 0.0967693487	-0.3006310922	-2.1393988479	 0.109813
H	 1.6799823288	 0.040722526	-1.4713026575	 0.113233
H	 1.0566434798	-2.6086036144	-2.0549089583	 0.096219
H	 1.5294101488	-3.5606495252	 0.1785992072	 0.113593
H	 1.6568439147	-2.1077157887	 2.0495293993	 0.25273
