22
gdb 9682	4.77199	1.04479	0.98644	1.2563	79.13	-0.2497	0.0708	0.3205	1316.4319	0.198215	-350.201679	-350.19183	-350.190886	-350.236008	36.464	
C	-0.3719654424	 1.4590418093	 0.2385389788	-0.372107
C	 0.2321746637	 0.0892501898	-0.0906306521	-0.193946
C	 0.9220082246	-0.546609541	 1.0988355204	-0.03266
C	 0.1133467254	-1.2948921275	 2.1484297624	-0.356102
C	 1.0627700354	-2.0364851101	 1.2334814265	 0.392565
O	 0.4953666338	-2.7838235078	 0.1835598122	-0.469567
C	 2.3447405258	-2.6283465521	 1.7901079124	-0.218831
C	 2.1532233695	-4.0200983294	 2.404246809	-0.393923
H	 0.397028172	 2.1618875385	 0.5784696004	 0.109456
H	-0.8588734531	 1.8978819482	-0.6381863492	 0.108196
H	-1.1196236255	 1.3791074484	 1.0348910364	 0.114152
H	-0.5433304826	-0.5896825603	-0.4569822801	 0.108035
H	 0.9536817981	 0.1949390371	-0.9112257735	 0.095348
H	 1.763052658	 0.0267694034	 1.4848485639	 0.077547
H	 0.3677042057	-1.1811309456	 3.1973626214	 0.104282
H	-0.9474231041	-1.4142356928	 1.9495744779	 0.10626
H	 0.0530338368	-3.5465314641	 0.5698816207	 0.28269
H	 3.08286647	-2.6830461173	 0.9800830725	 0.102899
H	 2.7514911716	-1.9442701936	 2.5439933798	 0.09299
H	 1.4303399188	-3.9957277467	 3.2272824905	 0.115017
H	 1.7919830756	-4.7335977936	 1.6557723524	 0.112206
H	 3.0959549529	-4.4113945728	 2.7976457973	 0.115495
