22
gdb 7552	3.15773	1.26203	1.06576	1.0138	79.81	-0.2495	0.0844	0.3339	1238.2955	0.19798	-350.188275	-350.178336	-350.177392	-350.222903	35.872	
C	 0.1258877365	 1.3785322876	-0.1040490343	-0.222035
O	 0.283608728	-0.0178527296	-0.1177905205	-0.234051
C	 0.4698225059	-0.5626688083	 1.176331889	-0.12788
C	 0.5527014075	-2.0667607055	 1.0615132621	 0.343703
C	-0.7147608639	-2.7053860666	 0.5225184394	-0.458134
C	 1.8792528311	-2.6767057529	 0.6646246381	-0.319157
C	 1.3621239543	-2.8580813933	 2.0722141686	-0.037954
C	 2.0787688982	-2.2595503256	 3.265131016	-0.414855
H	 1.0103516996	 1.8883695471	 0.3119465883	 0.099617
H	-0.0128958061	 1.7043846997	-1.1380544285	 0.124793
H	-0.7519294674	 1.6878843864	 0.4864714314	 0.10068
H	 1.3804233632	-0.1422604087	 1.6298359307	 0.079001
H	-0.3769138155	-0.2762819564	 1.8264057617	 0.079372
H	-0.9664077954	-2.2932002539	-0.4588532501	 0.132512
H	-0.598410538	-3.7886720175	 0.420163813	 0.106761
H	-1.5644844582	-2.5225225781	 1.1919705806	 0.106918
H	 1.8748393073	-3.5236980615	-0.0134040217	 0.105558
H	 2.7187434889	-2.0027135355	 0.5230144877	 0.106788
H	 0.9405080124	-3.8391388145	 2.2815076144	 0.079195
H	 2.579121195	-1.318531544	 3.0208699315	 0.116906
H	 1.3908901742	-2.0668293059	 4.0964381509	 0.115005
H	 2.8498024824	-2.948264863	 3.6283053617	 0.117255
