17
gdb 11440	4.54007	1.30005	1.1753	3.2754	64.36	-0.2367	0.0384	0.275	1030.9618	0.143682	-401.042641	-401.034738	-401.033794	-401.075228	28.969	
O	 0.1366690647	 1.1975217971	-0.4208686787	-0.421934
C	-0.0214172507	-0.189635736	-0.1639288653	-0.082266
C	-1.4832054831	-0.4399540426	 0.202892638	 0.009
C	-2.4250170796	-0.1001731521	-0.9820070179	-0.178124
N	-2.5897908123	-1.3852801677	-1.6391180931	-0.297145
C	-2.2978678919	-2.476711785	-0.8663070447	 0.403712
O	-2.4557522403	-3.6367897402	-1.1772583971	-0.380689
C	-1.7486936643	-1.9343931232	 0.4596147354	-0.358707
H	 1.0328976562	 1.3480972884	-0.734456993	 0.290376
H	 0.2461701327	-0.793733998	-1.0457894977	 0.098075
H	 0.6204535894	-0.5164265132	 0.668953783	 0.092389
H	-1.7223831449	 0.1828062619	 1.0683048104	 0.08955
H	-3.3844483211	 0.3000947744	-0.6258910921	 0.102655
H	-1.973418929	 0.6436635174	-1.6434827146	 0.128095
H	-3.0702200532	-1.503443596	-2.5168332924	 0.249735
H	-0.8640702881	-2.5004276531	 0.7624051202	 0.125723
H	-2.5107389645	-2.0913005622	 1.2303498695	 0.129555
