13
gdb 3793	7.68896	1.98786	1.61388	3.2565	56.	-0.2186	0.0037	0.2223	735.8439	0.103118	-340.622406	-340.616019	-340.615075	-340.652921	22.767	
C	 0.0254415065	 1.433101183	 0.1435996658	-0.328269
N	-0.0406150226	 0.0328032486	-0.2383445901	-0.369069
C	-1.2153528297	-0.6671215281	-0.0827593474	 0.449056
N	-1.1989389369	-1.9751948897	 0.0934175032	-0.248538
O	-2.5461480414	-2.36054449	 0.1369188664	-0.166939
C	-3.3092984826	-1.2731552436	 0.004214082	 0.092665
C	-2.5525440239	-0.1579473961	-0.1371245644	-0.331427
H	 1.0298299387	 1.8066137273	-0.0678436088	 0.133128
H	-0.6745380908	 2.0204475439	-0.4586071801	 0.136191
H	-0.1981738633	 1.6148730837	 1.2056383732	 0.12014
H	 0.7683590902	-0.5166416955	 0.0147549224	 0.25038
H	-4.3757971131	-1.4395453978	 0.0272070947	 0.146345
H	-2.8847040212	 0.8574668642	-0.266972347	 0.116336
