17
gdb 77108	3.35417	1.11556	0.93341	3.1844	74.57	-0.2584	0.0248	0.2832	1235.9782	0.136229	-417.97901	-417.970559	-417.969615	-418.012238	31.655	
O	 0.3023031836	 0.8629891143	-0.6058553862	-0.421192
C	-0.0547569361	-0.404147679	-0.1398290022	 0.042824
C	-0.0409493966	-0.6818532612	 1.4129043554	-0.18015
C	-1.4172202837	-1.4101360482	 1.2450302995	-0.316363
C	-1.5528938172	-0.6931903204	-0.1001090436	 0.332747
C	-2.5926494628	 0.2661473953	-0.5282748779	-0.295606
N	-2.4399356836	-1.0480985381	-1.1899625041	-0.378037
C	 1.0812932115	-1.4162993701	 1.9615004072	 0.255456
N	 1.9881728939	-2.011470459	 2.3635965026	-0.325696
H	 1.2493179982	 0.8819884714	-0.7779551723	 0.299098
H	 0.4900160716	-1.204148784	-0.6606935744	 0.096525
H	-0.1650528663	 0.2685423296	 1.9378511212	 0.133427
H	-1.2983359553	-2.490289582	 1.132983268	 0.134008
H	-2.1668523876	-1.2039199514	 2.0092658585	 0.127744
H	-3.5011506702	 0.3772644513	 0.0575131114	 0.123029
H	-2.2628552241	 1.1580169162	-1.0524771907	 0.135476
H	-1.9665622354	-0.9378358348	-2.0844620626	 0.236709
