21
gdb 65083	3.06412	1.35579	1.20454	1.6954	82.35	-0.257	0.0901	0.3471	1132.8908	0.182492	-387.025223	-387.016924	-387.01598	-387.058342	32.712	
C	-0.0434654241	 1.4763257269	-0.3480337202	-0.482144
C	-0.031557596	-0.0144801789	-0.0911334402	 0.240203
C	 1.1746762617	-0.8023510341	-0.392694306	-0.226373
O	 0.862637832	-0.4416108835	 0.954065865	-0.277658
C	-1.3662410535	-0.693249008	-0.0715734179	 0.363985
C	-1.660644206	-2.1950819543	 0.2219232856	-0.262795
C	-3.0474827973	-1.5383340412	-0.030806459	-0.053596
C	-2.5765710021	-0.3571086322	 0.8619311303	-0.258854
C	-2.4034054188	-0.7969927221	-1.2366534691	-0.260818
H	 0.971094783	 1.8797238242	-0.3065147433	 0.126291
H	-0.4702668657	 1.6997815626	-1.3313987048	 0.123363
H	-0.6478602422	 1.9913021971	 0.4058533649	 0.129235
H	 1.0884228234	-1.8628158217	-0.6237094519	 0.107696
H	 2.0446043293	-0.3050290045	-0.821377874	 0.107592
H	-1.3202754234	-2.9173012979	-0.5261451288	 0.085933
H	-1.4514978289	-2.5382392602	 1.2376446114	 0.101279
H	-4.0193954984	-2.0311272299	-0.0080467515	 0.073002
H	-2.4386827079	-0.565382492	 1.9260682562	 0.098265
H	-3.0703520922	 0.605291708	 0.7002438568	 0.087552
H	-2.8822530428	 0.1340525474	-1.5534749266	 0.089104
H	-2.11200729	-1.4102420456	-2.0944460369	 0.088738
