15
gdb 1554	5.77781	1.29152	1.10745	0.4306	59.31	-0.2652	0.0309	0.2962	1018.4298	0.122288	-345.605387	-345.596848	-345.595904	-345.638373	29.818	
O	-0.0650993877	 1.452080122	-0.0301134153	-0.424086
C	 0.029994476	 0.0368370478	 0.0305656027	-0.080977
C	-1.3872201178	-0.5195177132	-0.0283054712	-0.177921
C	-1.4142284255	-2.0567055017	 0.0263229885	-0.061726
O	-0.7702423363	-2.5638459992	 1.1955490279	-0.417242
C	-2.7828186445	-2.5668695387	-0.0966927435	 0.294387
C	-3.9156874026	-2.9650327486	-0.1534710784	-0.436586
H	 0.8197922223	 1.8152966604	 0.0672615796	 0.286238
H	 0.6182349465	-0.361071993	-0.8135703183	 0.083515
H	 0.517363294	-0.300151383	 0.955433823	 0.10247
H	-1.9719678495	-0.1151182537	 0.8064000664	 0.107602
H	-1.8737945352	-0.1822601761	-0.9498245978	 0.119268
H	-0.8147091575	-2.4493329653	-0.8052419669	 0.11887
H	-1.3603583634	-2.4035088623	 1.9407359823	 0.285872
H	-4.9109332987	-3.3304959954	-0.2176770189	 0.200318
