19
gdb 103019	2.27647	1.68166	1.1444	2.1146	81.51	-0.2427	0.0401	0.2828	1121.726	0.157115	-385.781242	-385.772519	-385.771575	-385.814479	33.777	
C	 0.8282032856	-0.4947314935	 1.3143150499	-0.379499
C	 0.0774199542	-0.0297711892	 0.0610165395	-0.285756
C	-1.3548026295	-0.5822372456	-0.0201433921	 0.141079
C	-2.1839181962	-0.0197911674	 1.0368094469	 0.302835
C	-2.796607148	 0.496501559	 1.9337014874	-0.440805
C	-2.0876867713	-0.748003454	-1.4031456682	 0.0004
C	-1.1594217298	-1.9246091928	-1.7866299203	-0.24807
C	-1.634415042	-2.1024791533	-0.3266658771	 0.018644
O	-2.9943061059	-1.728779528	-0.770357663	-0.296814
H	 1.8235294548	-0.0430878429	 1.3594966126	 0.114947
H	 0.2853926368	-0.2149164106	 2.2212592497	 0.136746
H	 0.9553716331	-1.5827910189	 1.3205301493	 0.114197
H	 0.0122147485	 1.0641971253	 0.0573703217	 0.112474
H	 0.6458202353	-0.3075754893	-0.8303165945	 0.100497
H	-3.3663046216	 0.9331879478	 2.7162565025	 0.189916
H	-2.5376104239	 0.0257313139	-2.0259691656	 0.100408
H	-1.6133502332	-2.6294344824	-2.4826774584	 0.115016
H	-0.1058271619	-1.7450726048	-2.0000797591	 0.102259
H	-1.5416467353	-2.9572752734	 0.3435892889	 0.101527
