21
gdb 120758	3.07429	0.90318	0.78368	1.7718	79.76	-0.2627	0.0772	0.3399	1550.1661	0.180824	-424.185481	-424.175816	-424.174871	-424.221093	34.727	
C	-0.1727472069	 1.4774049394	 0.4647297429	-0.382351
C	-0.2559665391	-0.0481303682	 0.3764551301	-0.157962
C	-1.5036492696	-0.5330325723	-0.3768095979	-0.228737
C	-1.5527182002	-2.0378601175	-0.4675240434	 0.062137
O	-1.9556765656	-2.7639970992	 0.7089254058	-0.260217
C	-2.7749927286	-2.8633364195	-0.4500017007	 0.016653
C	-4.1847482055	-2.3605206332	-0.3580519066	 0.046474
C	-4.9226746315	-2.4069741154	 0.9134661397	-0.174214
O	-4.4548736157	-1.1693560256	 0.3720084959	-0.222443
H	 0.72076419	 1.7967124575	 1.010155648	 0.110918
H	-0.1349579899	 1.9315030658	-0.5319980288	 0.11135
H	-1.0455559917	 1.8904964782	 0.9819535428	 0.119527
H	 0.6447496594	-0.4385437034	-0.1162691566	 0.09
H	-0.265151929	-0.4794101994	 1.3845487151	 0.112797
H	-2.4080832262	-0.1711658455	 0.1154873467	 0.140506
H	-1.4993448183	-0.1248919743	-1.3973341262	 0.09268
H	-0.685098397	-2.4882312275	-0.9582433948	 0.085873
H	-2.7264181489	-3.8326720123	-0.9555168239	 0.088162
H	-4.7488326526	-2.4582813033	-1.2874393242	 0.098168
H	-6.003083962	-2.5393094434	 0.9101767987	 0.116274
H	-4.3978114612	-2.7436392708	 1.8044744475	 0.134405
