19
gdb 55295	2.4159	1.50099	1.10034	2.2481	76.07	-0.2288	-0.0164	0.2123	1148.9556	0.158622	-419.171084	-419.162017	-419.161072	-419.20579	33.121	
C	 0.7331037042	 0.3880775088	-0.6011786527	-0.469821
C	-0.6079309255	 0.7232092015	 0.0050773422	 0.371661
O	-0.8849929361	 1.8191380531	 0.4466008991	-0.321028
C	-1.6459946836	-0.3832213083	 0.1103261981	-0.145957
N	-1.269917359	-1.7528476236	-0.310626818	-0.33465
C	-1.8380890122	-2.344048558	 0.9355083164	-0.233961
C	-1.8891203538	-0.9368109457	 1.5316283586	 0.341689
C	-1.3679234864	-0.416537137	 2.8118078548	-0.302529
N	-2.8214825511	-0.4568245152	 2.5276321243	-0.363234
H	 1.3846049976	 1.2619741819	-0.5686465392	 0.134134
H	 1.1823710344	-0.4551807025	-0.0679606324	 0.153095
H	 0.603486222	 0.050839794	-1.6357906261	 0.138771
H	-2.5837162238	-0.0041126632	-0.3233112292	 0.092701
H	-1.7161641611	-2.0674920544	-1.1645388149	 0.223592
H	-2.8399996476	-2.7777758896	 0.822266729	 0.107183
H	-1.1827467701	-3.0752524288	 1.41989668	 0.111056
H	-1.0358877366	-1.1095509507	 3.5802337695	 0.118881
H	-0.8688906075	 0.5477768383	 2.8053715246	 0.136579
H	-3.1429842538	 0.4756898093	 2.2745920559	 0.241838
