11
gdb 447	7.9234	3.7995	2.67986	4.2769	43.85	-0.2556	0.0548	0.3105	471.4994	0.08682	-322.44415	-322.439107	-322.438163	-322.472719	17.613	
N	-0.0697563396	 1.2682568028	-0.2233784061	-0.571043
C	 0.0033441691	 0.0313717149	-0.0174101477	 0.497196
O	 1.0206430231	-0.642380744	 0.5988647734	-0.247346
C	 0.7934259319	-2.0482782361	 0.4672714234	-0.10606
C	-0.7053333362	-2.1149424017	 0.1590512017	-0.098811
O	-0.9716189662	-0.8287767208	-0.4005413388	-0.223084
H	 0.7789718976	 1.7264021027	 0.0994649324	 0.232063
H	 1.4059388648	-2.4419445341	-0.3520751046	 0.125662
H	 1.0735809866	-2.5417522322	 1.3996914625	 0.131996
H	-0.9710154037	-2.8790859137	-0.5734694941	 0.133514
H	-1.3094960773	-2.2525664877	 1.0635010078	 0.125914
