19
gdb 51883	4.1146	0.91208	0.78869	4.0364	72.87	-0.2479	-0.0205	0.2273	1433.3612	0.159105	-460.177204	-460.168582	-460.167638	-460.211607	31.474	
O	-0.0670006213	-0.0472702015	-0.0210052884	-0.242389
C	 0.0019593023	 1.1541284277	-0.076688268	 0.153216
C	 1.3039198456	 1.9260129153	-0.1434252127	-0.311894
C	 1.3161117784	 2.976916824	-1.245332656	 0.202038
O	 0.2616802682	 3.8789050611	-1.0027522168	-0.253625
C	 0.2088293564	 4.9058571556	-1.9884759382	-0.080295
C	 1.5452698229	 5.6473666712	-2.0527010584	-0.207336
C	 2.6655648663	 4.6192133197	-2.2240244825	-0.083189
O	 2.569707625	 3.6107566564	-1.2229739327	-0.24767
H	-0.9099163834	 1.7874275699	-0.0710696987	 0.09617
H	 1.4370194086	 2.4585287602	 0.807379099	 0.138911
H	 2.1346425644	 1.2306601702	-0.276755574	 0.131793
H	 1.1672442503	 2.5156417969	-2.2427090067	 0.063553
H	-0.0292203598	 4.4652068192	-2.9712117929	 0.093938
H	-0.6147059355	 5.5651888262	-1.7040774227	 0.116337
H	 1.5489095571	 6.3633531435	-2.8818650051	 0.102754
H	 1.6991159812	 6.2004135071	-1.1204504826	 0.118049
H	 2.6069354334	 4.1570544738	-3.224035215	 0.093106
H	 3.6556717995	 5.0683875035	-2.1159887277	 0.116533
