12
gdb 130522	4.04476	1.75647	1.22465	4.2324	69.37	-0.2728	-0.0843	0.1885	898.2152	0.080338	-431.69135	-431.685553	-431.684609	-431.721423	22.791	
O	-0.0745808112	 1.3170553559	 0.0095967189	-0.271249
N	 1.3830220486	 1.7533165479	-0.0008640032	 0.008375
N	 2.0935033612	 0.747695143	-0.0147790822	-0.149679
C	 1.32646826	-0.4176019329	-0.0129046787	 0.294703
C	-0.0122345636	-0.0024963826	 0.0021586479	 0.397787
C	-1.0197336334	-0.9661325697	 0.0066906101	-0.237428
C	-0.5747736544	-2.2799867885	-0.0045933595	-0.085133
C	 0.8024380145	-2.5826110742	-0.0194383057	-0.033046
N	 1.7670683064	-1.6665076434	-0.023813748	-0.31178
H	-2.0701503538	-0.7039126847	 0.0181319139	 0.138616
H	-1.2898159867	-3.0949927948	-0.002119355	 0.122975
H	 1.1237415522	-3.6198422759	-0.0281515484	 0.125858
