18
gdb 120525	6.95624	0.67426	0.65029	4.883	73.99	-0.2717	-0.0011	0.2706	1699.0624	0.146336	-439.06133	-439.051889	-439.050944	-439.097084	32.408	
C	-0.624903714	 1.5331343531	 0.2001742119	-0.22709
O	-0.5348826706	 0.1513940189	 0.4641656742	-0.236515
C	-0.7741752004	-0.6457732454	-0.670151728	-0.075227
C	-0.6318437801	-2.0930078211	-0.2385957276	 0.12894
C	-1.7701954115	-2.6994324748	 0.6066823216	-0.303165
C	-1.9541592499	-3.6606616499	-0.5971250484	 0.000428
O	-0.9121371507	-2.9990932919	-1.3393649909	-0.294905
C	-1.655678543	-5.0739761031	-0.3427116915	 0.274991
N	-1.431312957	-6.1871683867	-0.1285840965	-0.315005
H	-0.422300965	 2.0574097301	 1.1367784809	 0.132871
H	 0.1111018912	 1.8512676142	-0.5540756867	 0.111008
H	-1.6276732315	 1.8146789816	-0.1570982309	 0.108006
H	-1.7853425568	-0.4726882813	-1.0772374824	 0.088029
H	-0.0537490796	-0.4299436572	-1.4769439869	 0.103011
H	 0.3715327264	-2.2613285704	 0.1681690392	 0.104785
H	-1.4753722957	-3.1718696092	 1.5420623637	 0.140733
H	-2.615849679	-2.0332914798	 0.778443488	 0.129284
H	-2.9194360429	-3.5963196772	-1.1122983499	 0.129819
