16
gdb 71977	2.83512	1.70896	1.24388	5.0871	74.42	-0.2289	0.012	0.2409	990.9542	0.126126	-396.861675	-396.854239	-396.853295	-396.893291	29.466	
N	-0.1419030432	 1.3858995881	 0.0316657007	-0.598731
C	 0.0161180997	-0.0151071411	-0.0565036286	 0.264362
C	 0.9186165694	-0.9106046518	-0.9218042078	-0.265612
C	 0.0420585638	-2.0735104503	-0.3982887059	-0.057091
N	 0.4609720298	-2.1423256711	 1.0495869475	-0.365104
C	-0.3016297416	-0.8781213961	 1.1980194648	 0.233655
C	-0.6578229499	-0.308314996	 2.4522082174	 0.19204
N	-0.943502038	 0.1248261013	 3.4868020535	-0.355186
C	-1.1060000881	-1.0326907429	-0.0766697774	-0.185006
H	 0.6556237152	 1.8335105318	 0.4712579628	 0.246545
H	-0.2827103625	 1.8057970922	-0.8807476331	 0.238989
H	 0.743701712	-0.7126290796	-1.98319024	 0.103304
H	 1.9882436145	-0.9718426606	-0.7042023546	 0.111114
H	-0.0569348001	-3.0141289505	-0.9325166162	 0.092306
H	-0.0982576813	-2.8704147175	 1.4952472208	 0.227312
H	-2.1641740596	-0.9438525159	-0.2815876539	 0.117103
