15
gdb 5555	3.38173	1.89759	1.27908	1.902	64.49	-0.1908	0.0185	0.2093	914.1869	0.120215	-399.814512	-399.807012	-399.806068	-399.846293	28.141	
N	-0.084844322	 1.4052142086	-0.0945183151	-0.612666
C	-0.031900379	 0.0081820331	-0.0579610376	 0.152199
C	-1.0979784976	-0.8463496043	 0.0305926666	 0.252276
C	-2.5640311076	-0.5923662462	 0.0394568667	-0.187135
O	-2.9427234545	 0.372018527	-0.9502484638	-0.412993
O	-0.6485298284	-2.1436539671	 0.1151597123	-0.182387
C	 0.7019619121	-2.0965602564	 0.0830693571	-0.018372
C	 1.1435156687	-0.8151720529	-0.0233494606	-0.239744
H	 0.6675905797	 1.8195323834	-0.6281070998	 0.240875
H	-0.9809106809	 1.7328968216	-0.4358631568	 0.252189
H	-3.0972836253	-1.5452834239	-0.0876103153	 0.112675
H	-2.9020337247	-0.1531707622	 0.9859879109	 0.125612
H	-2.6295667717	 0.0374673736	-1.7982527011	 0.281885
H	 1.207952582	-3.0463720963	 0.1422431545	 0.131477
H	 2.1710304391	-0.487811128	-0.0682097582	 0.104108
