20
gdb 57315	2.9456	1.02188	0.91222	0.9595	78.51	-0.272	-0.0218	0.2501	1382.7213	0.167623	-440.332104	-440.321557	-440.320613	-440.368027	37.562	
C	-0.0547906044	 1.5241912617	 0.0752925761	-0.402777
C	 0.0184922952	-0.0061645867	-0.0245191647	 0.113183
C	 0.8012276131	-0.587010457	 1.1741088671	-0.414128
C	-1.4022071175	-0.6117509596	-0.0645450897	-0.414132
C	 0.7467179251	-0.3765523289	-1.3124197251	 0.479503
O	 1.1949095352	 0.3855893044	-2.1245471355	-0.349399
O	 0.8338534518	-1.7475874053	-1.4406850851	-0.215619
C	 1.4614524523	-2.2589940212	-2.5473442602	 0.115264
N	 1.5363339761	-3.5100304793	-2.6557584673	-0.422456
H	 0.9433571455	 1.9692510514	 0.0907155052	 0.125556
H	-0.5943107953	 1.9519887788	-0.7735479871	 0.125543
H	-0.5748943496	 1.8091604628	 0.9949331639	 0.110644
H	 0.2902270356	-0.3218747301	 2.1049471563	 0.119866
H	 0.8699641482	-1.6751870735	 1.114982947	 0.14143
H	 1.8159911896	-0.1786486181	 1.2204829031	 0.122011
H	-1.9760406459	-0.2213122379	-0.9112625559	 0.122001
H	-1.3688555159	-1.7003325415	-0.1434438385	 0.141432
H	-1.936408657	-0.3467801718	 0.8532230314	 0.119865
H	 1.8303728015	-1.4857881083	-3.2213355574	 0.142978
H	 2.0225841364	-3.7514665099	-3.5181743735	 0.239233
