20
gdb 10066	3.33995	1.23471	0.97427	0.7199	77.6	-0.2399	0.0498	0.2897	1244.6294	0.173479	-348.966541	-348.956318	-348.955373	-349.002524	35.805	
C	-0.4772074542	 1.0937196387	 0.5254572887	-0.391923
C	-0.191258876	-0.3352870949	 0.0606847328	-0.174008
C	 0.5469709668	-0.3937590226	-1.2810748512	 0.12565
C	 0.8596038378	-1.8634600309	-1.6645413866	-0.3543
C	 1.8114405616	-2.0354281694	-2.7555440547	 0.288302
C	 2.6187698062	-2.192594578	-3.6330431239	-0.43773
O	-0.2873963701	 0.2268530584	-2.2441161767	-0.249566
C	 0.3721936238	 0.8821225407	-3.3096008307	-0.242684
H	 0.4526255756	 1.6519255948	 0.683760122	 0.109461
H	-1.0678640948	 1.6273192667	-0.2227299438	 0.133402
H	-1.0311867699	 1.0964707898	 1.468913914	 0.11047
H	 0.4068427446	-0.8641834235	 0.812332873	 0.093308
H	-1.1327478291	-0.8897523348	-0.0424943497	 0.104845
H	 1.4956724147	 0.1601991871	-1.198219801	 0.07331
H	 1.248342706	-2.3794284722	-0.7773569877	 0.126931
H	-0.0918521096	-2.3468990682	-1.917780415	 0.137374
H	 3.3251781549	-2.3292034925	-4.413785289	 0.194212
H	 1.0924275661	 1.6274444604	-2.9390361831	 0.102673
H	 0.9021532414	 0.1823087843	-3.9653105002	 0.128713
H	-0.3997260259	 1.3987777661	-3.8864001972	 0.12156
