19
gdb 82943	2.14437	1.84086	1.46829	1.9983	73.98	-0.2283	0.0774	0.3056	1005.2005	0.159064	-422.977786	-422.969742	-422.968797	-423.009765	32.323	
C	-0.0806880777	 1.5638202904	-0.0500650242	-0.433658
C	 0.0636002489	 0.0561144767	 0.0139364388	-0.104349
C	 1.3537676865	-0.688324853	-0.2862770625	 0.023477
O	 2.5634528211	 0.0186148105	-0.1404439205	-0.266319
C	 2.9449269789	 0.0633260667	 1.2220545787	 0.105041
C	 2.2778870652	 1.0642446002	 2.1260678536	-0.33688
C	 1.7750911781	-0.3666712119	 2.0641266972	-0.140042
C	 0.721242644	-0.8304998038	 1.0704428661	 0.330374
O	 0.0739014749	-2.0250499541	 1.3998494404	-0.468573
H	 0.8888346034	 2.0523625557	-0.1657958915	 0.142649
H	-0.6821629724	 1.83231379	-0.9244940345	 0.11663
H	-0.5802813762	 1.9803049506	 0.8306726096	 0.117548
H	-0.7888044688	-0.4819708874	-0.3981880947	 0.092279
H	 1.3864182671	-1.4780811449	-1.0305302374	 0.103521
H	 3.9735884232	-0.2388511478	 1.3894709275	 0.100466
H	 2.8263632058	 1.3338726932	 3.0236766249	 0.112354
H	 1.6954229873	 1.8697226615	 1.7052270341	 0.12407
H	 1.8905889636	-1.0125047534	 2.9257534193	 0.097373
H	-0.697330073	-1.8056738793	 1.9339764749	 0.284038
