15
gdb 33622	3.5132	1.64658	1.44425	5.2572	73.01	-0.2574	0.0118	0.2692	902.4024	0.115342	-379.597177	-379.591015	-379.590071	-379.627682	25.252	
N	 0.0142096992	-1.172308776	 0.0052849655	-0.347433
C	-0.0043343294	-0.0151592679	 0.0138294949	 0.125671
C	-0.0449269346	 1.4111741479	 0.0539334355	 0.30317
C	-0.6995528269	 2.3402012414	 1.127038844	-0.173112
C	-0.9402345211	 3.3398612193	 0.0241271947	-0.084299
C	 0.3696466287	 3.3550875756	 0.8100550161	-0.084302
C	 1.200090603	 2.374892642	-0.0783249319	-0.089032
N	 0.8760911901	 2.5823637246	-1.5036042557	-0.299294
C	-0.5303028546	 2.354839403	-1.1166285244	-0.089041
H	-1.2406756417	 2.1125242722	 2.0333285837	 0.114067
H	-1.6331276694	 4.1687644337	-0.004424989	 0.103142
H	 0.7066345849	 4.1959702887	 1.3994211441	 0.103142
H	 2.2199709406	 2.1116003639	 0.1946329738	 0.099405
H	 1.0773871601	 3.5176855172	-1.8571371395	 0.218511
H	-1.2463807189	 2.0714219844	-1.8853233817	 0.099405
