20
gdb 18476	3.2266	1.57764	1.38146	1.4289	74.76	-0.2483	0.0728	0.3211	1012.6038	0.177186	-348.974206	-348.96593	-348.964986	-349.006818	31.652	
C	-0.275605868	 1.442949622	 0.1774492139	-0.373127
C	 0.2194296056	 0.0258152031	-0.1339899476	-0.207147
C	 0.8327525854	-0.6466392034	 1.0811115629	 0.01857
C	 0.0763371457	-1.2740445782	 2.2183924197	-0.068036
C	-1.1630267045	-2.0264901368	 1.7200712677	-0.28595
C	-0.2158832089	-2.9461426463	 0.8710382484	 0.122031
O	-0.3942816732	-3.040664563	-0.528632445	-0.426885
C	 0.9899173486	-2.1281086454	 1.3126276729	-0.10662
H	 0.5372146541	 2.0761605992	 0.5514080873	 0.108248
H	-0.6883510331	 1.9251792558	-0.7143968516	 0.107418
H	-1.0577145211	 1.4284808449	 0.9445024204	 0.114365
H	-0.5926753406	-0.5823672797	-0.5373873095	 0.114203
H	 0.9771379336	 0.0651723191	-0.9269184996	 0.094622
H	 1.7112264005	-0.1144334781	 1.4480420828	 0.079194
H	 0.2463799577	-0.9905381258	 3.2498445171	 0.081948
H	-1.6901058604	-2.5769309187	 2.5028853796	 0.09657
H	-1.8904432131	-1.4373887772	 1.153402409	 0.098324
H	-0.1740762402	-3.9480855474	 1.3193901369	 0.071996
H	-1.1529947154	-3.6089657824	-0.6964480328	 0.281148
H	 1.9596039774	-2.5584760216	 1.5348710977	 0.079127
