21
gdb 115878	2.50809	1.39331	1.06832	1.2492	78.3	-0.25	0.0701	0.3201	1215.585	0.182163	-424.221204	-424.21217	-424.211226	-424.25469	34.755	
C	-0.0024923379	 1.5621325268	-0.0875671158	-0.383316
C	 0.0152566563	 0.0332799044	-0.0052563654	-0.198434
C	-1.3777072956	-0.5813948426	 0.0432852609	 0.083627
O	-2.0797208604	-0.2532358673	-1.1555676185	-0.273374
C	-3.1171927849	-1.2148705059	-1.3494224767	-0.094843
C	-2.5806873918	-2.509960371	-0.7700950528	-0.110719
C	-1.1542639911	-2.8641959201	-1.1450896065	-0.354652
C	-1.4459210385	-2.1056754891	 0.1247644577	 0.373482
O	-1.2772754815	-2.6979716191	 1.3740554716	-0.472583
H	 1.0131429112	 1.9676500454	-0.1235460299	 0.107807
H	-0.5361644733	 1.8912208083	-0.9827710378	 0.137069
H	-0.5064022707	 1.9981199577	 0.7821797949	 0.112741
H	 0.5540664314	-0.3847803418	-0.8636521406	 0.099559
H	 0.5535148368	-0.2863091013	 0.8972455863	 0.085938
H	-1.9171798458	-0.1915006596	 0.9256751115	 0.067834
H	-4.0379009996	-0.9166711035	-0.8226241028	 0.094654
H	-3.3291881448	-1.2493593059	-2.423176943	 0.107066
H	-3.2639816063	-3.2980549437	-0.4784843465	 0.099067
H	-0.8756814418	-3.9050286047	-1.0226688481	 0.112408
H	-0.6875677386	-2.3504526377	-1.9797779843	 0.120546
H	-0.3321211632	-2.7890202393	 1.5357944758	 0.286122
