19
gdb 54115	2.65708	1.5489	1.1669	2.194	76.44	-0.2285	-0.0134	0.215	1106.0333	0.15738	-423.009433	-423.00057	-422.999626	-423.04302	33.963	
C	-0.071558748	 1.5126209773	 0.193786082	-0.472545
C	 0.0874837659	 0.0223682025	-0.0525010875	 0.314756
O	 1.1819956575	-0.477590855	-0.2155527897	-0.317697
C	-1.1792706321	-0.7908729373	-0.0643045353	 0.274551
O	-2.3605222984	-0.0353409217	 0.0787428154	-0.467653
C	-1.4013165596	-2.0753959275	-0.8496666044	-0.118771
C	-0.1588762735	-2.9691143398	-0.9482937617	-0.232823
C	-0.0840779364	-2.9962783064	 0.6146009063	-0.236656
C	-1.3355972798	-2.1144957532	 0.6707775136	-0.076941
H	 0.9178141929	 1.9654586317	 0.2662614053	 0.135018
H	-0.6282046812	 1.9811487926	-0.6258557546	 0.126433
H	-0.6509280285	 1.6964524586	 1.1028951281	 0.150376
H	-2.6202114704	 0.2890117391	-0.7901736653	 0.286461
H	-2.2752486072	-2.1170293025	-1.4914687556	 0.084227
H	-0.4089713482	-3.9485098336	-1.3634584824	 0.099938
H	 0.7028729148	-2.5587172864	-1.4728715079	 0.124905
H	-0.2779090428	-3.9912720734	 1.0216558531	 0.102607
H	 0.8224154684	-2.5914483738	 1.065374891	 0.122967
H	-2.1450467635	-2.1725175914	 1.3884701697	 0.100846
