13
gdb 43038	2.96154	1.66121	1.22161	3.3686	70.31	-0.2342	-0.0171	0.217	966.0653	0.087396	-419.331518	-419.324419	-419.323475	-419.363053	27.429	
O	-0.1167983782	 0.0469035838	-0.0046974169	-0.311374
C	-0.0723411453	 1.2359227253	 0.0811430446	 0.405199
C	-1.1117748866	 2.3794146752	-0.0508352738	-0.089842
O	-0.9120786939	 3.1492781425	 1.1687156273	-0.282502
C	 0.3503012478	 3.5248653829	 0.6288101048	 0.056374
C	 0.0273390734	 3.1857544518	-0.7665430914	-0.179077
C	 1.0374904898	 2.2619204964	 0.0460118118	 0.039818
C	 2.4336112717	 2.1137326909	-0.1108905378	 0.137524
C	 3.6232355569	 1.9821252727	-0.2361660199	-0.37693
H	-2.1461089604	 2.2342990311	-0.3465926412	 0.119818
H	 0.9214918527	 4.321115338	 1.0873076883	 0.142239
H	 0.172514796	 3.6195640911	-1.7439936154	 0.145781
H	 4.6714034562	 1.8544138983	-0.3496717605	 0.192971
