19
gdb 118311	2.2473	0.77845	0.59997	1.5662	82.6	-0.2442	-0.0279	0.2162	1843.7663	0.155016	-423.004714	-422.993325	-422.992381	-423.044765	37.365	
C	-0.0467524094	 1.5000008474	 0.0008771088	-0.499446
C	-0.0202240479	 0.0447735365	 0.0264617965	 0.122111
C	 0.0007364665	-1.158864071	 0.0682184175	 0.013123
C	 0.041150999	-2.6174893777	 0.0572400983	-0.257781
C	-1.3785071753	-3.2324482975	-0.0530560732	-0.184637
C	-1.3889384297	-4.7449204187	 0.1408023008	-0.088372
O	-2.735775591	-5.1722511483	 0.0182116336	-0.422028
C	 0.8903814625	-3.0777616028	-1.1317657538	 0.173119
O	 1.7813911672	-3.880899949	-1.0621001013	-0.250133
H	 0.8516364676	 1.9049756861	-0.4775496805	 0.152376
H	-0.9155694564	 1.8729277152	-0.5522541375	 0.151285
H	-0.0965190052	 1.9117740536	 1.014770462	 0.152723
H	 0.5323405546	-2.9957020156	 0.9621467169	 0.118455
H	-2.021438713	-2.7687277925	 0.7005756238	 0.12643
H	-1.8121575233	-2.9883265946	-1.0296322951	 0.119126
H	-0.7436252089	-5.2317106449	-0.6063454461	 0.103826
H	-0.9767457155	-4.9923022914	 1.1327516289	 0.092544
H	-2.7572421583	-6.1290453145	 0.1114384017	 0.288642
H	 0.5963694465	-2.6059173504	-2.0962165916	 0.088638
