21
gdb 116483	3.12882	1.11315	0.88273	1.7861	81.04	-0.2439	0.0061	0.25	1355.1425	0.182779	-424.209574	-424.200574	-424.19963	-424.243706	33.721	
C	 0.2496490861	 1.3057932153	 0.1685504895	-0.241825
O	 0.0891785596	-0.0834031897	 0.0010503449	-0.245647
C	-1.2661261288	-0.5066424237	-0.0701602413	 0.075251
C	-1.2749367483	-1.8569520706	-0.7935548244	-0.210287
C	-2.6685328186	-2.3377399319	-1.2050701209	-0.085008
O	-3.495887829	-2.748970607	-0.1346397615	-0.233557
C	-4.0480764292	-1.7006123709	 0.6422203158	-0.131382
C	-3.0888324366	-1.0463787279	 1.6148310287	-0.078245
C	-1.8943501667	-0.5450301332	 1.3080756352	-0.060523
H	 1.3235764724	 1.5067645343	 0.1914579257	 0.128022
H	-0.2003577074	 1.8684876826	-0.6650675485	 0.103681
H	-0.1947713192	 1.6741428513	 1.1055218071	 0.105084
H	-1.8288760384	 0.2127243758	-0.6960076113	 0.070655
H	-0.6665470594	-1.7473819036	-1.6987899248	 0.102445
H	-0.7972299385	-2.6133127288	-0.1627899847	 0.115157
H	-3.1760802925	-1.5536119175	-1.7947653164	 0.081362
H	-2.5680929111	-3.2164047294	-1.8500474817	 0.107989
H	-4.490674942	-0.9373785871	-0.0236948897	 0.094639
H	-4.8731311116	-2.1561812715	 1.197437498	 0.111186
H	-3.4229179382	-0.9973221602	 2.6483655686	 0.092077
H	-1.2785505027	-0.1233634162	 2.0988325617	 0.098926
