21
gdb 116921	5.18182	0.53339	0.50382	2.0554	90.95	-0.2423	0.0317	0.274	2254.6102	0.17988	-387.054644	-387.044007	-387.043063	-387.092097	37.236	
C	 0.0951270157	 1.5907112592	 0.0397745842	-0.382314
C	 0.0574782254	 0.0616100998	 0.0156293312	-0.154356
C	-1.383747137	-0.488486209	 0.0296348318	-0.341109
C	-1.4465467203	-1.9448538747	 0.0078221304	 0.061821
C	-1.4732498322	-3.1500961782	-0.0014074311	 0.139312
C	-1.4728391477	-4.5871014177	-0.0388496285	-0.166942
O	-1.9166657387	-5.2927216935	 1.1373012131	-0.245946
C	-2.7169605011	-5.3920462477	-0.0382450054	 0.097813
C	-4.0909796692	-4.7798694904	 0.0050162794	-0.424089
H	 1.1249276608	 1.959869749	 0.031998385	 0.116384
H	-0.4174730742	 2.0153885261	-0.8306269469	 0.11604
H	-0.393627973	 1.9862297321	 0.9371881765	 0.117095
H	 0.5712818776	-0.3148632145	-0.8758931292	 0.109244
H	 0.5983588477	-0.34371821	 0.8777944697	 0.112795
H	-1.9054735359	-0.1172197966	 0.9221359571	 0.130865
H	-1.9358137355	-0.0839835833	-0.8298461948	 0.126999
H	-0.5923414713	-5.0325533313	-0.5028374447	 0.107946
H	-2.6550753539	-6.3669551815	-0.527361618	 0.089824
H	-4.0547766261	-3.7741877344	 0.4286693896	 0.139058
H	-4.5120386052	-4.7215879923	-1.0044287669	 0.121297
H	-4.7607000158	-5.3948710211	 0.6149597374	 0.128261
