23
gdb 42128	1.87521	1.79634	1.07863	1.1481	87.55	-0.2328	0.0272	0.26	1213.9391	0.208179	-388.288053	-388.279375	-388.278431	-388.321106	34.28	
C	 0.0080916447	 1.520305294	 0.0859448844	-0.209095
C	 1.4478154579	 2.0842338387	 0.0459730079	-0.171569
C	 1.904291903	 2.682588072	-1.3130910295	-0.250756
C	 2.4801650204	 1.7155626813	-2.3213905584	-0.040236
C	 1.8059783579	 0.9205435075	-3.1520738334	-0.014228
C	 0.3159578248	 0.7469298924	-3.1783385507	-0.273173
C	-0.1060326259	-0.5124697078	-2.3844865905	-0.063645
O	 0.5096577417	-0.626324306	-1.1194381093	-0.227405
C	-0.1337106491	-0.0037335684	-0.0272115773	-0.060075
H	-0.4506162573	 1.7814627402	 1.0488634847	 0.094834
H	-0.6093801953	 2.0187547372	-0.6704353651	 0.095079
H	 1.5130964296	 2.8888728156	 0.7869443452	 0.091716
H	 2.1597030155	 1.3145316784	 0.3655308476	 0.103536
H	 1.0571214712	 3.2289784844	-1.7472226543	 0.10117
H	 2.6681056837	 3.4398126769	-1.1040484739	 0.095291
H	 3.5674506698	 1.6798837434	-2.3601453039	 0.080444
H	 2.3711152419	 0.2715534751	-3.8192680204	 0.079277
H	-0.1838841164	 1.6295683862	-2.769810479	 0.100863
H	-0.0481110932	 0.6243833857	-4.2068395358	 0.095067
H	-1.2032678415	-0.5480342908	-2.2905700175	 0.084431
H	 0.2066449648	-1.4028741679	-2.942788995	 0.104
H	 0.3190730187	-0.4644910583	 0.8589695524	 0.103108
H	-1.2055233069	-0.2656322697	-0.0201169283	 0.081368
