19
gdb 114373	2.29993	1.27198	0.99165	3.3895	76.75	-0.2342	-0.0225	0.2118	1264.2657	0.157748	-422.991606	-422.982767	-422.981823	-423.025764	32.525	
C	-0.0044066437	 1.4322170795	-0.2582837318	-0.386394
C	 1.2201665178	 0.6225964678	 0.1832973478	-0.214131
C	 1.741427086	-0.2583180081	-0.9354122569	 0.14841
O	 2.9630481592	-1.006766692	-0.6300812243	-0.30606
C	 2.3989353315	-2.1803100538	-1.2170307866	 0.061932
C	 1.2587728302	-2.7071703963	-0.3828567759	-0.127568
C	 1.2584218724	-2.6426971679	 1.1018353117	 0.138429
O	 0.5727655663	-3.357628297	 1.7947835622	-0.274489
C	 1.0513097599	-1.547186903	-1.3796439241	-0.174508
H	 0.2288079269	 2.0743916698	-1.1145530772	 0.119555
H	-0.8316040195	 0.7753168724	-0.5473068273	 0.125791
H	-0.3589364048	 2.0740255943	 0.5525291174	 0.125624
H	 2.0307836104	 1.297529427	 0.48490574	 0.114641
H	 0.9713604416	 0.0181392055	 1.0601568333	 0.110129
H	 1.9410177078	 0.3591693045	-1.823087878	 0.092125
H	 3.0234280116	-2.7819689682	-1.8667765319	 0.118174
H	 0.803441742	-3.6180931885	-0.7631970167	 0.115275
H	 1.9707540963	-1.9196365557	 1.5442195058	 0.098935
H	 0.3194695579	-1.6435824702	-2.1694606676	 0.114129
