18
gdb 12738	2.61453	2.20751	1.7958	2.2645	67.2	-0.2375	0.0634	0.3009	850.0975	0.152898	-384.910073	-384.902304	-384.90136	-384.941878	29.962	
C	-0.5967927132	 1.4124847114	-0.0051624391	-0.415749
C	 0.0302111717	 0.0354212602	-0.0351017609	 0.134666
O	 1.1815476017	-0.0566697594	-0.9185790875	-0.314593
C	 1.9926659673	-0.6835125168	 0.0923327495	 0.047574
C	 2.8551341787	 0.3416734666	 0.8657201302	-0.228967
C	 1.7253586756	 0.4913120631	 1.9345051907	-0.308721
C	 0.8456724488	-0.518088324	 1.1518303066	 0.33349
O	 0.1592350088	-1.5118398565	 1.8446167414	-0.474131
H	 0.1284420996	 2.1816203488	 0.2751782199	 0.119088
H	-0.9892096778	 1.6657413336	-0.9950208531	 0.128935
H	-1.429707652	 1.4347833651	 0.7057710489	 0.123024
H	-0.7198136518	-0.7155120498	-0.3208285241	 0.085369
H	 2.4378481876	-1.6250430908	-0.2394870099	 0.074829
H	 3.7855270193	-0.0667608445	 1.2686685566	 0.099771
H	 3.0810836764	 1.2348231236	 0.2807848184	 0.113753
H	 2.0179163764	 0.0907871441	 2.9112021392	 0.093321
H	 1.3095060803	 1.4886692847	 2.0966553665	 0.107919
H	 0.6960285426	-1.7984014194	 2.5906166067	 0.280421
