18
gdb 74618	2.64246	1.91709	1.40047	2.5186	76.2	-0.2204	0.0044	0.2248	962.9281	0.147782	-401.903811	-401.896142	-401.895198	-401.935408	30.911	
C	 0.1116237953	 1.5094374903	 0.0520245741	-0.490854
C	-0.0685032331	 0.0281759611	-0.0127436962	 0.204523
C	-0.071576972	-0.7842658196	-1.0802021886	-0.186502
C	-0.1379257738	-2.2003232201	-0.6440889378	-0.058827
C	-0.5572449972	-2.247721688	 0.7697438974	-0.128107
N	 0.8229634859	-2.7179257043	 0.4502888759	-0.16141
C	 1.3645694715	-1.5529854415	 1.207157822	-0.168652
C	-0.0253914923	-0.8448870452	 1.2292896622	 0.301924
O	-0.3743311571	-0.2767618595	 2.4541717973	-0.488459
H	 1.0419632381	 1.7739390565	 0.5701058515	 0.138227
H	 0.138465411	 1.9506258032	-0.9475541392	 0.1274
H	-0.6969080211	 1.9914848247	 0.6153674187	 0.118364
H	 0.0422774021	-0.4825312269	-2.1142431492	 0.098807
H	-0.379947923	-2.9988424325	-1.3345161789	 0.096808
H	-1.3190050564	-2.8713455136	 1.2286868395	 0.093282
H	 1.6222955717	-1.9068485777	 2.208108006	 0.123631
H	 2.209601382	-1.0254945616	 0.7530292054	 0.098196
H	-1.2525657716	 0.1109173247	 2.37186294	 0.28165
