20
gdb 89327	1.90005	1.72636	1.10596	4.3721	85.13	-0.2597	0.0205	0.2802	1184.6996	0.170486	-366.018582	-366.009443	-366.008499	-366.052069	34.638	
C	-0.1444054813	 1.5684829437	 0.0587646203	-0.414033
C	 0.0641290019	 0.0614195208	 0.0063783433	-0.032021
C	 1.1704821722	-0.5356322883	-0.9284847083	-0.305631
C	 1.8014343926	-1.2680769619	 0.266513281	 0.294766
C	 2.3094912923	-2.6795370639	 0.2394839006	-0.491253
C	 2.2107597885	-0.2651839746	 1.2967477261	-0.370819
C	 0.7407844413	-0.6330805376	 1.208704149	 0.171314
C	 0.0485563265	-1.2265121906	 2.3032189029	 0.185103
N	-0.5299414799	-1.7169339251	 3.17926191	-0.359217
H	 0.7866605823	 2.1033380002	 0.271744564	 0.117182
H	-0.5258937753	 1.9367440946	-0.8995784188	 0.121445
H	-0.8701451652	 1.8364603052	 0.8335422091	 0.130961
H	-0.8890853453	-0.4330911945	-0.1982820683	 0.094473
H	 0.7619268105	-1.2115739058	-1.6826439526	 0.111114
H	 1.8237417624	 0.1892173355	-1.4251590382	 0.102594
H	 3.2595018564	-2.7388655979	-0.3048737784	 0.128354
H	 2.4802268306	-3.0586224533	 1.2517284494	 0.135061
H	 1.5984953983	-3.3489123991	-0.2560715672	 0.127669
H	 2.7232461847	-0.6664847136	 2.1648473716	 0.134556
H	 2.5264418566	 0.7361340862	 1.0155319646	 0.118381
