20
gdb 82506	3.18073	1.4039	1.30772	3.0795	77.47	-0.2199	0.0606	0.2805	1070.2283	0.172527	-403.114017	-403.105987	-403.105042	-403.146003	32.463	
C	 0.0125622676	 1.5234268635	-0.0663990783	-0.460316
C	-0.0134434582	 0.0191604892	 0.0559467388	 0.336521
C	-1.3175065227	-0.7148294572	-0.3074750864	-0.3141
C	-1.4681394599	-1.9045481321	 0.6484696552	-0.107795
C	-0.5199774153	-3.0717795569	 0.5698086317	 0.072917
O	 0.2933591084	-3.3229359582	-0.547270653	-0.409564
C	-0.2118063732	-1.9477175222	 1.5239266632	-0.080801
C	 0.6562359619	-0.764909243	 1.1398180801	-0.087187
N	 1.2591457181	-0.6651637317	-0.1998995756	-0.382015
H	 0.9837893839	 1.9104432157	 0.251065512	 0.12782
H	-0.1446422015	 1.8348256443	-1.10628013	 0.114284
H	-0.770180471	 1.9885460006	 0.5438121269	 0.107012
H	-2.1675666812	-0.0393655918	-0.1670064148	 0.105258
H	-1.3298304876	-1.0131540613	-1.3641000894	 0.094903
H	-2.4551692973	-2.0948876198	 1.0578521866	 0.08531
H	-0.8748328849	-3.9857241333	 1.0477154842	 0.093527
H	-0.2752304724	-3.6350970623	-1.2600352875	 0.292151
H	-0.2640311159	-2.1789812447	 2.5821984805	 0.085987
H	 1.2258620765	-0.2986592594	 1.9391791201	 0.082927
H	 1.1303926647	-1.5371352093	-0.7038127543	 0.243163
