16
gdb 8874	3.33753	1.36406	1.14064	1.8566	62.72	-0.2501	-0.0974	0.1527	1076.0729	0.126239	-420.877794	-420.868432	-420.867488	-420.912577	31.345	
C	-0.1533261216	 1.3004682984	-0.0348290567	-0.236901
O	-0.0585303022	-0.106756741	 0.0042909847	-0.23288
C	 0.5216113023	-0.6818580402	-1.1386574596	 0.040871
C	 2.0581744087	-0.5571585865	-1.1636139802	-0.427153
C	 0.1298190084	-2.1539825747	-1.1572014433	 0.273711
O	-0.3178229751	-2.763302436	-0.2185068387	-0.261824
C	 0.3228563283	-2.9127606031	-2.4796227857	 0.081898
O	 0.7253415553	-2.4107022219	-3.4965180514	-0.220618
H	 0.8298292957	 1.7920627573	-0.0263728713	 0.111061
H	-0.7057418638	 1.6449458573	-0.922749269	 0.108508
H	-0.7001460635	 1.6041978952	 0.8605469732	 0.136929
H	 0.1187588311	-0.2251750884	-2.0583390208	 0.096324
H	 2.3502218936	 0.4959305904	-1.1728935866	 0.130775
H	 2.4856865184	-1.028454237	-0.2741328108	 0.138143
H	 2.4694926801	-1.0270389605	-2.0596787541	 0.14631
H	 0.0304723745	-3.9809617594	-2.3964976098	 0.114845
