16
gdb 124913	3.97648	1.47849	1.24284	5.4577	74.89	-0.2468	-0.0111	0.2357	1004.6782	0.125764	-396.860123	-396.853083	-396.852138	-396.891483	27.313	
C	 0.0641476079	 1.6079876854	 0.1078778742	-0.492148
C	 0.0628497897	 0.1120514079	 0.0100773086	 0.171621
C	-0.9210575372	-0.8099015418	 0.7253740655	-0.314279
C	 0.5536429277	-0.9456632645	 1.0075065769	-0.052055
N	 1.2024473826	-1.6147762111	-0.1365302705	 0.078943
N	 1.5588460362	-2.8028000616	-0.6648988769	-0.168725
N	 1.4351438531	-2.6404522245	-1.9586431331	-0.179088
C	 0.8874650127	-1.4109575138	-2.2543850714	-0.194661
C	 0.7392327048	-0.7434747252	-1.0625745878	 0.215307
H	 1.0701110309	 2.013401213	-0.0363123898	 0.137474
H	-0.5893773886	 2.048254617	-0.653066699	 0.137141
H	-0.3004586044	 1.9342540966	 1.0864332065	 0.127725
H	-1.5036472704	-0.3446967274	 1.5174563868	 0.129021
H	-1.4359419703	-1.5961198431	 0.1827284851	 0.144627
H	 1.0424958527	-0.8455417677	 1.966045971	 0.134393
H	 0.6928607426	-1.124038229	-3.2738183161	 0.124705
