25
gdb 59047	2.94194	1.00051	0.92314	0.1587	95.51	-0.2247	0.0353	0.26	1468.5358	0.230166	-352.390762	-352.381005	-352.380061	-352.4253	37.725	
C	 0.0605203423	 1.5492108399	-0.0844637631	-0.385657
C	 0.0206717398	 0.0151749404	 0.0575163697	-0.058208
C	 0.7864805706	-0.4331043479	 1.3159430632	-0.388641
C	-1.3981758307	-0.5283117633	 0.0230157126	 0.344953
C	-1.8308984907	-1.2538014832	-1.0129964521	-0.16887
C	-3.2098617283	-1.8484031643	-1.1394777945	-0.239373
C	-3.9847362975	-1.8122573517	 0.1846413255	-0.192933
C	-3.7899641538	-0.4626681107	 0.8820564576	-0.201442
C	-2.3072018807	-0.2242306587	 1.1991045303	-0.289455
H	 1.095951747	 1.9027002535	-0.1374259482	 0.108543
H	-0.4569330586	 1.8743124976	-0.992074888	 0.113702
H	-0.4103232168	 2.0484934491	 0.7691375422	 0.113684
H	 0.5420476531	-0.4042875188	-0.8123651287	 0.07037
H	 0.3401451389	-0.0191063884	 2.2264777288	 0.114024
H	 0.7914441237	-1.523674973	 1.4096021954	 0.113075
H	 1.8260295525	-0.0910181111	 1.2759014838	 0.108465
H	-1.1509585089	-1.439215006	-1.8435984203	 0.06878
H	-3.7697948182	-1.3065938059	-1.9175054147	 0.102233
H	-3.1339592202	-2.880206065	-1.5067910864	 0.097471
H	-5.0474082867	-2.0120472289	 0.0096982536	 0.087865
H	-3.6174026793	-2.6111729442	 0.8421285424	 0.095084
H	-4.154011485	 0.33897188	 0.2259486586	 0.095723
H	-4.3827866599	-0.4106933384	 1.8019015158	 0.087723
H	-2.0112155556	-0.8457643807	 2.0570019268	 0.105367
H	-2.1607467969	 0.8114175493	 1.5295687	 0.097517
