17
gdb 37390	2.92497	2.20428	1.78889	0.2928	69.09	-0.2405	0.0578	0.2983	816.9167	0.139101	-421.76066	-421.754918	-421.753974	-421.79039	25.258	
C	 0.0020030997	 1.5407430736	 0.087692475	-0.308251
C	 1.3054572849	 0.7859190192	-0.0559110201	-0.02531
C	-0.019231336	 0.0432740468	-0.0725224966	-0.021093
C	-0.1543081561	-0.7108924795	-1.3784510657	 0.016003
O	 0.9948964563	-1.6387957646	-1.3800896781	-0.298227
C	 1.7170449228	-0.6832019155	-2.1449238833	 0.07428
C	 1.931565066	 0.7454790463	-1.4400661042	 0.01459
O	 0.9883222101	 1.3295673591	-2.3945971679	-0.293545
C	 0.4702365363	 0.0255026462	-2.6402218775	 0.056201
H	-0.242369267	 1.9056240003	 1.0793572779	 0.109567
H	-0.3051206703	 2.1794418719	-0.7279999277	 0.13878
H	 1.9700483906	 0.6919266599	 0.794959235	 0.090393
H	-0.2924831612	-0.5463101332	 0.7969840423	 0.096878
H	-1.0939881097	-1.2497516368	-1.5145932279	 0.080455
H	 2.5397640878	-1.0927600003	-2.730680054	 0.093187
H	 2.9151783718	 1.2133901548	-1.5112051395	 0.080914
H	-0.036098426	-0.0876248283	-3.5989834577	 0.095177
