16
gdb 49937	3.6005	0.88373	0.85074	4.0032	69.53	-0.2612	-0.0467	0.2145	1364.7301	0.122661	-437.885496	-437.876693	-437.875749	-437.920875	30.402	
O	-0.3646395268	 0.5484596083	 1.0097843765	-0.231087
C	 0.4946798183	 0.7195580124	 0.1849242161	 0.135677
C	 1.2555514568	 2.0203824933	 0.0051277098	 0.061017
C	 1.4031809769	 2.9195280507	 1.242854568	-0.333057
C	 2.908167652	 2.5978209396	 1.1146984655	 0.151413
C	 3.5437545388	 1.831368133	 2.2783335405	-0.35319
C	 4.9057607196	 1.3923501609	 1.9828075597	 0.266806
N	 5.9860209308	 1.0597770338	 1.7447136321	-0.296827
O	 2.6790880975	 1.7519820401	-0.0377772644	-0.302942
H	 0.8224862115	-0.086819428	-0.507068151	 0.102906
H	 0.9115309147	 2.5162731066	-0.9140247872	 0.109591
H	 1.1354873489	 3.9661588613	 1.1042597958	 0.126564
H	 0.90498619	 2.5255256396	 2.1304256446	 0.138077
H	 3.5381945472	 3.4521648373	 0.8435641619	 0.107212
H	 3.563966353	 2.4776515164	 3.1642874083	 0.157756
H	 2.928276881	 0.9586714746	 2.5224880536	 0.160084
