17
gdb 63614	2.93621	1.05789	0.95587	2.0021	78.63	-0.26	-0.0588	0.2012	1283.3009	0.132014	-421.793001	-421.783393	-421.782449	-421.827487	35.368	
C	-0.2394984441	 1.5370413779	 0.0551022364	-0.466239
C	-0.0087871703	 0.0454018879	 0.0499179405	 0.409504
O	-1.1506403984	-0.7195444751	-0.2363688165	-0.460774
C	 1.3074215786	-0.5402234759	-0.3415451937	-0.344839
C	 0.8506312165	-0.6478383501	 1.1116228629	-0.169207
C	 1.5669185947	 0.1411195362	 2.1461647772	 0.247242
O	 2.2417811437	 1.1251601505	 1.9015506854	-0.324231
C	 1.409498536	-0.3392286678	 3.5093124887	 0.249094
C	 1.2768712153	-0.7493191155	 4.6333354109	-0.410144
H	 0.654229854	 2.0756194512	 0.3723504065	 0.16033
H	-0.5040225707	 1.8748411873	-0.954552052	 0.108523
H	-1.0670636045	 1.7904944111	 0.7245584735	 0.12883
H	-1.4279650531	-0.5046147798	-1.1344625078	 0.285244
H	 1.3048268389	-1.4588537909	-0.91627145	 0.119899
H	 2.1369509797	 0.1380270777	-0.5107533782	 0.139304
H	 0.4486576302	-1.599348983	 1.4370786451	 0.113347
H	 1.1678236633	-1.0969670116	 5.6318968212	 0.214117
