21
gdb 47919	2.10613	1.61667	1.12233	4.2722	78.23	-0.2562	0.0165	0.2727	1164.1497	0.184971	-424.271673	-424.26328	-424.262336	-424.30476	32.526	
O	-0.0650390877	 0.0084834673	 0.6036008328	-0.326302
C	-0.0498461139	 1.1355559023	 0.1846423316	 0.404074
C	-1.3263490909	 1.9575732626	 0.0415660356	-0.328851
C	-2.007630426	 1.8220194177	-1.3385007536	-0.192638
C	-1.3303410079	 2.5153400526	-2.5328522724	-0.193586
C	 0.0540423076	 1.9562923331	-2.9288027033	-0.197315
C	 1.2653288394	 2.7180076784	-2.3671573672	-0.19787
C	 1.2634324051	 2.9212096597	-0.8538819766	-0.074494
O	 1.1472326338	 1.6804054841	-0.1517977646	-0.221739
H	-1.9983981183	 1.5431712372	 0.7960492941	 0.133805
H	-1.1724312994	 3.0126220451	 0.2866772881	 0.112655
H	-2.1185570533	 0.7531299607	-1.5588761135	 0.120912
H	-3.0233115313	 2.2212901562	-1.2378871462	 0.102869
H	-2.009229504	 2.4100241573	-3.3864255887	 0.103395
H	-1.2606540613	 3.5959411196	-2.345933879	 0.091585
H	 0.1188253257	 0.9023379442	-2.6328247607	 0.121181
H	 0.1469535972	 1.9602159189	-4.0200112158	 0.100302
H	 2.1808931389	 2.1871711745	-2.6515352296	 0.113229
H	 1.3231253983	 3.7141092453	-2.8263455924	 0.100706
H	 2.2175331077	 3.3455623115	-0.5290162477	 0.120313
H	 0.4783184001	 3.6193079018	-0.5505108108	 0.107769
