18
gdb 58854	2.60745	1.46617	1.07343	1.94	72.99	-0.2602	0.0182	0.2784	1135.5661	0.146357	-439.054366	-439.045584	-439.04464	-439.087913	33.12	
C	-0.1141598858	 1.5344186648	 0.0817489145	-0.424145
C	 0.0249603053	 0.0131006393	 0.082181053	 0.005796
O	-1.2267911391	-0.6478104078	 0.2408770824	-0.42778
C	 0.737974789	-0.4751636671	-1.1599272421	 0.198299
C	 0.0401567317	-0.973576735	-2.433573001	-0.346956
C	 1.0032285518	-1.8520016858	-1.7199634865	 0.034078
O	 2.3623172198	-1.4820540238	-2.0927352694	-0.277566
C	 2.1754544316	-0.2342634897	-1.5026670549	 0.402739
N	 2.9876992223	 0.696228582	-1.286465519	-0.562746
H	 0.869072553	 2.0049934974	-0.0035631351	 0.163349
H	-0.718255736	 1.8649532882	-0.7727589508	 0.10859
H	-0.5970121187	 1.8704317242	 1.0037065932	 0.120909
H	 0.6193052911	-0.2883169711	 0.9534633801	 0.102099
H	-1.884892806	-0.1481667406	-0.2539916032	 0.283485
H	-1.0053469145	-1.2183981438	-2.2754742825	 0.125609
H	 0.2949543631	-0.5711837475	-3.408922472	 0.129475
H	 0.8466511743	-2.8434698243	-1.3195726617	 0.132983
H	 3.9198054471	 0.4660389406	-1.6349393452	 0.231784
