21
gdb 92048	2.70397	1.50999	1.06628	1.1602	85.69	-0.2225	0.0201	0.2426	1189.0404	0.182641	-387.088249	-387.079653	-387.078709	-387.121118	33.975	
C	 0.1803949411	 1.5434063389	-0.1482435992	-0.400754
C	 0.0378443666	 0.0360897092	 0.0470812993	 0.0437
O	 0.5355038482	-0.54177935	-1.1629147174	-0.270018
C	 0.6160662812	-1.9357418906	-1.1915121199	 0.09699
C	 1.9995300887	-2.5261652467	-1.1504688198	-0.304762
C	 1.0773390522	-2.6214873816	 0.059586505	-0.096865
C	 1.2493984605	-1.7482672234	 1.2437123604	-0.183329
C	 0.7514608203	-0.5093588014	 1.2808452599	 0.303011
C	 0.8218010987	 0.3520636435	 2.5114110199	-0.485382
H	 1.2356635101	 1.8238707975	-0.2171307429	 0.124184
H	-0.3112202523	 1.8323376262	-1.0803712181	 0.124985
H	-0.2800723809	 2.0977581244	 0.6730629182	 0.114988
H	-1.037638243	-0.2003987283	 0.145048396	 0.075399
H	-0.1413924859	-2.4085629064	-1.8146832904	 0.083936
H	 2.1977395648	-3.4312232606	-1.7147049705	 0.107797
H	 2.8174721676	-1.8170311584	-1.0986797573	 0.120478
H	 0.6711483747	-3.6087830882	 0.2643657329	 0.092818
H	 1.7641225481	-2.1576740037	 2.1104020867	 0.081036
H	 1.282319204	-0.1928033397	 3.3399786492	 0.119664
H	 1.4006592591	 1.267678068	 2.3435506178	 0.128451
H	-0.1782277536	 0.6702110313	 2.8340392704	 0.123673
