20
gdb 117041	4.49979	0.73034	0.63823	2.7486	78.38	-0.2485	-0.0526	0.1959	1790.4878	0.168052	-440.307555	-440.296933	-440.295989	-440.344557	36.694	
C	 0.095111679	 1.530139603	 0.1088655897	-0.386861
C	 0.0971463146	-0.0000525843	 0.0765535488	-0.164892
C	 0.8289485639	-0.5559601948	-1.144585245	-0.27581
C	 0.8418306755	-2.0694591369	-1.1948836425	 0.313959
O	 0.3276379248	-2.7713393908	-0.358474826	-0.291067
C	 1.5583788002	-2.6993854807	-2.3913652066	 0.328689
N	 2.096560383	-1.9532009662	-3.2670757088	-0.525207
O	 1.5039857359	-4.0429646815	-2.3267388588	-0.203402
C	 2.1273124175	-4.7741639736	-3.3721687703	-0.26615
H	 1.1150510279	 1.9299133426	 0.1366423594	 0.113532
H	-0.3967694391	 1.9472103447	-0.7771210501	 0.113532
H	-0.4333742555	 1.9058424239	 0.9903545951	 0.113474
H	 0.5624353814	-0.3961309807	 0.9858570468	 0.109516
H	-0.9307012943	-0.3790957598	 0.0832980095	 0.109535
H	 0.3889476775	-0.1906304418	-2.0814488518	 0.134838
H	 1.8690071739	-0.2077348213	-1.1867547355	 0.134835
H	 2.5462797081	-2.4728749945	-4.020295634	 0.224485
H	 1.67269544	-4.5465941712	-4.3442087438	 0.133029
H	 3.2032180141	-4.5653423942	-3.4185532518	 0.133034
H	 1.9724716016	-5.827283072	-3.1374654845	 0.150934
