17
gdb 111399	2.15705	1.69755	1.10814	3.2411	68.82	-0.2451	-0.0299	0.2152	1100.8469	0.133474	-458.909065	-458.900345	-458.899401	-458.943454	30.937	
C	-0.2082546567	 1.3600218728	-0.1447285592	-0.257677
O	 0.2201290038	 0.024651733	 0.0835115255	-0.238787
C	 0.7013392457	-0.6065108158	-1.0522544502	 0.134205
C	 1.3334241157	-1.9771575424	-0.834700038	-0.018759
O	 0.3058599118	-2.905743662	-0.4788275283	-0.231363
C	 0.4717586646	-2.5884538888	-1.8628057733	-0.001236
C	-0.3170614935	-1.2910901674	-2.095229487	-0.19742
C	-1.7670850623	-1.3167743749	-1.6775474401	 0.170028
O	-2.5558233376	-0.4520611159	-1.9735287407	-0.266079
H	 0.6203296642	 1.9823338991	-0.5148593168	 0.106816
H	-1.0360136414	 1.4009058821	-0.8625889939	 0.142657
H	-0.5458168632	 1.7520695847	 0.8165288275	 0.135277
H	 1.384019934	 0.0438401254	-1.6203051251	 0.083005
H	 2.3413078741	-2.2110591042	-0.5141013822	 0.115438
H	 0.676908433	-3.4007323819	-2.5489011731	 0.117079
H	-0.2231830686	-0.8469025671	-3.0878803912	 0.101678
H	-2.0657682036	-2.1839116366	-1.0552290237	 0.105138
