19
gdb 101554	2.22678	1.06746	0.86659	2.0214	73.6	-0.2631	-0.0826	0.1806	1424.9605	0.155484	-460.207372	-460.196941	-460.195996	-460.243975	35.873	
C	 0.0652429608	 1.6943308846	-0.2037572571	-0.392854
C	-0.0291927625	 0.168531916	-0.1297177107	-0.180558
C	 0.7277519256	-0.5479260772	-1.2430016061	 0.138767
C	 0.6805574984	-2.0674061794	-1.1374705764	-0.412437
O	 0.0981552891	-0.1345616685	-2.495485946	-0.230556
C	 0.845044476	-0.1594924408	-3.5922486363	 0.341005
O	 1.9991627758	-0.504226579	-3.6805706679	-0.349089
C	 0.0795166638	 0.3262539417	-4.8305507302	 0.091852
O	-1.0618885702	 0.6909582633	-4.8296933374	-0.212804
H	 1.1062448985	 2.0303222711	-0.1409843879	 0.116028
H	-0.3539732478	 2.0661392845	-1.1424776533	 0.136454
H	-0.4851104346	 2.1589938339	 0.619227445	 0.118197
H	 0.3774631804	-0.1884835089	 0.824014914	 0.103991
H	-1.0787877064	-0.1478601923	-0.1612262866	 0.112427
H	 1.7684685825	-0.21023289	-1.2819571448	 0.110165
H	 1.2344175407	-2.5294591291	-1.9576038497	 0.141642
H	 1.1359922972	-2.3879108047	-0.1955610612	 0.12482
H	-0.3537686098	-2.423823226	-1.1598435158	 0.128856
H	 0.7210169424	 0.2987106306	-5.7343891116	 0.114093
