13
gdb 27042	2.49732	1.46953	0.92565	4.9347	67.49	-0.2147	-0.0469	0.1678	1144.92	0.0894	-489.95475	-489.946764	-489.94582	-489.987387	29.219	
N	 0.1383685476	 1.3632442764	 0.1656488469	-0.586831
C	-0.0365377598	 0.0209962841	 0.0585482504	 0.342875
C	-1.1442993293	-0.7830581458	 0.0246647719	 0.14891
N	-0.6314860639	-2.0986704726	-0.0130576497	-0.434499
C	 0.7218573328	-2.1066540413	-0.011687473	 0.497964
O	 1.5357993434	-2.9798981612	-0.0428477863	-0.376916
O	 1.0878884006	-0.7237420853	 0.0368856594	-0.231538
C	-2.5445520142	-0.5043499061	 0.015259345	 0.059488
O	-3.4061746343	-1.3678808858	-0.0225847906	-0.325731
H	 1.0360162787	 1.7112675541	-0.1363009304	 0.282192
H	-0.6473110045	 1.9502958925	-0.0643948973	 0.279522
H	-1.2085678678	-2.9217143538	-0.0467656635	 0.292867
H	-2.8064024493	 0.5765875549	 0.0445338674	 0.051697
