21
gdb 118906	3.04339	1.05293	0.98402	2.0696	80.02	-0.236	0.0287	0.2647	1330.6333	0.181746	-424.227559	-424.21816	-424.217216	-424.262151	35.143	
C	-0.1390280863	 1.3287867142	 0.1867480989	-0.228694
O	-0.0445086954	-0.0734444938	 0.0924625015	-0.253556
C	-1.3012962212	-0.7263187992	 0.0771362038	-0.112149
C	-1.0387047539	-2.2182144972	-0.1398966029	 0.407527
O	-0.3175466255	-2.3787169187	-1.3526397669	-0.488847
C	-0.3058467443	-2.8351120608	 1.0945818783	-0.317522
C	-1.3959147217	-3.5709241971	 1.8297493352	-0.059181
C	-2.5147202101	-3.6574854428	 1.1118429548	-0.063905
C	-2.3785802531	-2.9927193514	-0.2340834926	-0.314685
H	 0.8784244241	 1.7272617468	 0.181355421	 0.129417
H	-0.6953114247	 1.7569251821	-0.6613727671	 0.109142
H	-0.6380591857	 1.639341064	 1.1173349556	 0.109325
H	-1.842939951	-0.5591810698	 1.0218052807	 0.09472
H	-1.9175599454	-0.3389099428	-0.7498489762	 0.091993
H	 0.3719516862	-1.7027990276	-1.340870453	 0.282109
H	 0.4730265609	-3.5222681627	 0.7401218346	 0.11117
H	 0.1967180084	-2.0719337761	 1.6982076354	 0.106647
H	-1.2517830734	-3.9978214181	 2.8165328696	 0.088818
H	-3.421481858	-4.1658631228	 1.4206599048	 0.089467
H	-3.2221647912	-2.3350623161	-0.4794958321	 0.095283
H	-2.3094090985	-3.7247613603	-1.0485221333	 0.12292
