18
gdb 51192	4.30325	1.06936	1.01507	1.2737	75.28	-0.2423	-0.0295	0.2128	1192.2767	0.147391	-401.885271	-401.877478	-401.876533	-401.918673	29.414	
O	-0.0637944634	-0.1118690028	-0.2111879095	-0.236282
C	 0.0126785942	 1.0820613126	-0.0809428241	 0.165845
C	 1.3074296284	 1.869283942	-0.0734909373	-0.408764
C	 1.3364272396	 2.9113763133	-1.1735407988	 0.282631
C	 1.3785837782	 2.5088878834	-2.6785526183	-0.281114
C	 2.0550695115	 3.8572657795	-2.9050840577	-0.031063
C	 2.4866443262	 3.9551309968	-1.4925697219	-0.110797
N	 1.4453713907	 4.8932991695	-1.9939683048	-0.143396
C	 0.4089329288	 4.1448729086	-1.2133431261	-0.188663
H	-0.9052865571	 1.7031436887	 0.0406629993	 0.079084
H	 1.38773811	 2.3723214682	 0.9015126728	 0.120222
H	 2.1402295742	 1.1655932976	-0.1667828797	 0.124152
H	 2.0786863446	 1.688463548	-2.8575299406	 0.114247
H	 0.4250005718	 2.297330788	-3.1747221608	 0.101815
H	 2.5372217708	 4.2373267625	-3.7956287582	 0.103867
H	 3.403937111	 4.2541241905	-1.0023135441	 0.099687
H	-0.5694594003	 4.0495206829	-1.6996409658	 0.100588
H	 0.2942482909	 4.6332137708	-0.2411394743	 0.107942
