19
gdb 37299	2.65378	1.9997	1.99899	0.2081	81.02	-0.2216	0.0065	0.2281	858.9395	0.163211	-348.742645	-348.736476	-348.735532	-348.772476	27.975	
C	-0.0316820055	 1.5479331773	-0.1282045647	-0.31915
C	 1.284698497	 0.8256609305	 0.0360013856	-0.006742
C	 0.0059386907	 0.0477542164	 0.0436810622	-0.006738
C	-0.1771849223	-0.6573130532	 1.4309949102	-0.132715
C	 1.0730894047	-1.5328790933	 1.5610029321	-0.060724
C	 2.2109995681	-0.8406495515	 1.5541776621	-0.060726
C	 2.0071485543	 0.6714903707	 1.41788847	-0.13271
C	 1.0347919912	 1.1021116261	 2.5026034136	-0.073485
C	-0.1030354602	 0.4099301196	 2.5094380925	-0.073487
H	-0.4025250332	 2.165523613	 0.6801427258	 0.113999
H	-0.263795519	 1.9196838832	-1.1217583725	 0.101466
H	 1.9447531796	 0.7572457	-0.8222746078	 0.08406
H	-0.2442910248	-0.5744114245	-0.8091302375	 0.08406
H	-1.10300461	-1.2324004655	 1.4712986656	 0.05898
H	 0.9986924534	-2.6115658474	 1.6285557518	 0.090065
H	 3.2036797171	-1.2701957636	 1.6153255323	 0.090066
H	 2.9438236543	 1.2294199598	 1.4469982108	 0.058979
H	 1.2626542373	 1.9291861553	 3.1645543926	 0.092401
H	-0.9364447329	 0.5914006973	 3.1777577455	 0.092401
