19
gdb 58705	1.90653	1.74858	1.13848	4.2264	75.34	-0.2445	0.0154	0.2599	1134.762	0.158503	-419.194456	-419.184965	-419.184021	-419.228431	35.205	
C	 0.0096288349	 1.4961924718	 0.2650642982	-0.433666
C	-0.0908534267	-0.0140326121	 0.0628419722	 0.05956
O	 0.5590192778	-0.7265076764	 1.1049828516	-0.429676
C	-1.5558763102	-0.5123379744	-0.1003708535	 0.167661
C	-1.6916954273	-2.0699514132	-0.0569249847	-0.280476
C	-2.2915159223	-1.8890284935	 1.3578336136	-0.152808
N	-2.4166859968	-0.4333018009	 1.1028479158	-0.341807
C	-2.1537266266	 0.1313758718	-1.2802896628	 0.276577
N	-2.5974536975	 0.6303442784	-2.2241137335	-0.351246
H	 1.0582937878	 1.7844761822	 0.3723160714	 0.135091
H	-0.4212328918	 2.0405822906	-0.5785835407	 0.158739
H	-0.5223542716	 1.8116868532	 1.172419892	 0.110268
H	 0.4413862599	-0.2934615155	-0.8544356807	 0.10988
H	 0.3432734376	-0.30040453	 1.9410270583	 0.282446
H	-2.3933219348	-2.4596527308	-0.7937729691	 0.129552
H	-0.745364872	-2.6052123758	-0.1142942006	 0.133369
H	-3.2521137596	-2.3769975529	 1.5486872867	 0.111796
H	-1.5877398392	-2.1588925258	 2.1519879237	 0.10337
H	-2.1071106817	 0.1987946032	 1.8326493422	 0.211371
