25
gdb 112812	2.44168	1.04457	0.80872	1.4114	89.4	-0.2521	0.0722	0.3242	1547.9488	0.227893	-389.4888	-389.478078	-389.477134	-389.524432	39.997	
C	 0.106634939	 1.6109264291	 0.0394662016	-0.383742
C	-0.0619009325	 0.0885240905	-0.0195880974	-0.193742
C	 0.6594916956	-0.5363519669	-1.2083154849	 0.038671
C	 2.2142771719	-0.536064703	-1.2306567525	-0.281581
C	 2.1552485368	-1.9355226219	-1.8918814248	 0.134655
O	 3.0500480802	-2.9328307792	-1.4467359839	-0.426999
C	 0.6868990181	-2.0945170529	-1.3992391492	-0.048643
C	 0.509711772	-2.9377210252	-0.1324016714	-0.167412
C	 0.5152688051	-4.4450626173	-0.4144206775	-0.391239
H	 1.1626041293	 1.8900529253	 0.1229047301	 0.11753
H	-0.2903104319	 2.0886658023	-0.8634067231	 0.111698
H	-0.4184605973	 2.0369212142	 0.9000968669	 0.110133
H	 0.3078456296	-0.3543827369	 0.9130630487	 0.096254
H	-1.130991576	-0.1575155722	-0.0721591376	 0.093691
H	 0.2826812767	-0.0743599247	-2.1291444808	 0.064288
H	 2.7303042671	 0.2662560609	-1.7647947613	 0.087728
H	 2.6268193752	-0.6147908516	-0.219167813	 0.101216
H	 2.1832598686	-1.8497183588	-2.9879716861	 0.062816
H	 3.9346674657	-2.6968213596	-1.7429928895	 0.282039
H	-0.0049027414	-2.4647231834	-2.1638287397	 0.058469
H	 1.2967158445	-2.702181385	 0.5928146687	 0.099948
H	-0.4410403292	-2.6632088055	 0.3412743675	 0.089242
H	-0.2912312143	-4.7170950012	-1.1054482058	 0.103428
H	 1.4633852088	-4.7513207763	-0.8614995472	 0.139794
H	 0.3683013286	-5.0178565008	 0.5071542921	 0.101756
