22
gdb 79584	2.10585	1.66467	1.51916	1.2163	86.13	-0.2293	0.0864	0.3158	1080.8187	0.193114	-367.159577	-367.1504	-367.149455	-367.192555	35.883	
C	-0.1638100043	 1.4729501627	-0.0765725219	-0.317565
N	 0.0951501409	 0.0487608733	 0.0677362821	-0.132796
C	 1.4128955904	-0.5160555193	-0.155065989	-0.111708
C	 2.5501566059	 0.3290465584	 0.3846880018	-0.12511
C	 3.2047506759	-0.4037858448	 1.5292661124	-0.337604
C	 1.899633023	 0.3166441047	 1.7763194237	 0.305676
C	 1.767539885	 1.4056872212	 2.8078390978	-0.503802
C	 0.7618186127	-0.5422968734	 1.2191355054	 0.263763
C	 0.07942103	-1.655569211	 1.9631354875	-0.49007
H	 0.6704417241	 2.1252215075	 0.2144119275	 0.108153
H	-0.4043216285	 1.6772945226	-1.125325908	 0.11778
H	-1.0387638698	 1.7399485799	 0.5252554118	 0.116677
H	 1.5121571732	-1.3261253178	-0.8714135481	 0.088029
H	 3.0324757636	 1.1617438846	-0.1150019744	 0.087079
H	 3.2474365257	-1.4903474846	 1.5212720076	 0.105284
H	 4.0875731099	 0.0681518581	 1.9540705784	 0.104799
H	 2.6846656329	 2.0009341909	 2.8714709033	 0.117344
H	 0.9406212806	 2.0868323127	 2.5851133359	 0.120132
H	 1.5853470167	 0.9814726344	 3.8026538115	 0.120574
H	-0.6075244528	-1.2584125453	 2.7203992094	 0.117672
H	-0.5045208295	-2.2731954099	 1.2764369398	 0.129896
H	 0.8084462946	-2.2905078846	 2.4779659256	 0.115795
