19
gdb 109044	2.67593	1.46425	1.03195	4.0758	76.97	-0.2106	0.0259	0.2364	1173.235	0.159818	-419.196597	-419.187864	-419.18692	-419.230216	32.43	
C	-0.0996305717	 1.402221254	 0.039884082	-0.345394
N	 0.0253178155	-0.0238342348	 0.2253934262	-0.080603
C	-1.1013731178	-0.9168041577	 0.1525033744	-0.037023
C	-1.2444804432	-1.727191208	-1.1149749026	-0.315633
C	-0.4350109668	-2.2854902976	 0.038262583	-0.00486
N	 0.9882824505	-2.0572974571	 0.0202509336	-0.346824
C	 1.1609247229	-0.779606348	 0.0649643385	 0.338703
C	 2.5463378918	-0.193615942	-0.0190452978	-0.132713
O	 3.5092900251	-1.2079079293	-0.0971398588	-0.422891
H	 0.8478576564	 1.8944621289	 0.2699599296	 0.144228
H	-0.3916352215	 1.6696435214	-0.9864152775	 0.126405
H	-0.8583954205	 1.8011775331	 0.7218457956	 0.134023
H	-1.9563628873	-0.6679083966	 0.7725819442	 0.099697
H	-2.2135928346	-2.18180729	-1.2872650478	 0.117586
H	-0.7160731318	-1.4074969995	-2.0073604077	 0.115947
H	-0.7833632115	-3.1736791377	 0.5514770755	 0.100643
H	 2.6072630984	 0.4712005547	-0.8973392282	 0.104574
H	 2.7251938203	 0.4413329826	 0.8640632654	 0.108642
H	 3.0034672258	-2.0376715665	-0.1019460575	 0.295492
