15
gdb 130033	3.40944	1.59595	1.09539	0.8662	73.02	-0.2184	0.0073	0.2257	1026.9596	0.117558	-413.017363	-413.010541	-413.009597	-413.048349	27.064	
N	-0.0455557874	 1.3676840081	 0.127612438	-0.573809
C	 0.0019071814	-0.0011819938	 0.0342587927	 0.264648
N	-1.0622408109	-0.7424861413	 0.0198409982	-0.331441
C	-0.6489613268	-2.1538267345	-0.0033413699	-0.278318
C	 0.8524905875	-2.0885081187	-0.021179014	 0.338452
C	 1.2505217465	-0.7702799759	 0.007546494	 0.170644
C	 2.6617709363	-0.8106979171	 0.0033959706	-0.191547
N	 3.0972669743	-2.06966995	-0.0275856441	-0.21552
N	 1.969451384	-2.8357502089	-0.04117491	-0.339436
H	 0.7236906351	 1.8750015641	-0.280158956	 0.253717
H	-0.9539471958	 1.7649841053	-0.0639653938	 0.256777
H	-1.0398346797	-2.6818110484	 0.8762790943	 0.130042
H	-1.0677493859	-2.6555155613	-0.8851334763	 0.128474
H	 3.3838315946	-0.007735338	 0.0236985772	 0.11262
H	 2.072472717	-3.8361082996	-0.0627145511	 0.274696
