15
gdb 21209	5.34559	1.34893	1.09487	2.3552	64.06	-0.1861	0.0538	0.2399	1038.9116	0.120085	-395.990515	-395.982501	-395.981557	-396.022909	28.999	
C	 0.0433798279	 1.3944441879	-0.1327019707	-0.322087
N	-0.0413522099	-0.0014366364	 0.2582420123	-0.365156
C	-1.2547385823	-0.6601112625	 0.1269287222	 0.427588
N	-1.2817406281	-1.9707405542	-0.0919897744	-0.343904
N	-2.6191120713	-2.2756418765	-0.0888719179	-0.255429
C	-3.3909474844	-1.1922287066	 0.1045210158	 0.467319
O	-4.7336852434	-1.3423591498	 0.1189617585	-0.432352
C	-2.5578216404	-0.1011344214	 0.2516768606	-0.452528
H	 1.0734210532	 1.7358876717	-0.0039553612	 0.123293
H	-0.2614992817	 1.5876413687	-1.1736878167	 0.109355
H	-0.5858067323	 2.00688451	 0.5217167309	 0.128417
H	 0.7185508822	-0.5727394469	-0.0850238864	 0.238644
H	-2.9219403673	-3.2202046071	-0.2452415638	 0.273556
H	-5.1361716843	-0.4838447352	 0.2808340079	 0.311582
H	-2.8438532778	 0.9212712882	 0.4320639128	 0.091702
