19
gdb 92606	2.02469	1.78179	1.5932	0.8667	69.63	-0.2404	0.0607	0.3011	985.692	0.160142	-460.149076	-460.14102	-460.140076	-460.181484	31.975	
O	-0.1758015877	 1.4377838502	 0.5186188134	-0.434813
C	-0.072499349	 0.1086008106	 0.0697415365	 0.071824
C	 0.4344906505	-0.9468471446	 1.0935247834	-0.268978
C	-0.9240970321	-1.6944130203	 1.0201593753	-0.069262
C	-1.8769041353	-1.4169571318	 2.1858849222	-0.100783
O	-2.371217183	-0.0877707014	 1.9672162361	-0.26603
C	-2.6223372449	-0.0054703732	 0.5654582053	-0.171896
C	-1.4163278868	-0.6957624392	-0.0800509423	 0.355915
O	-1.6650327765	-1.2770506697	-1.3358744701	-0.491113
H	-0.645666803	 1.4141985287	 1.3630667739	 0.289785
H	 0.4950012462	 0.1369726388	-0.8645350285	 0.08745
H	 1.2899929778	-1.5308303875	 0.7474684975	 0.108158
H	 0.678721917	-0.5218747958	 2.0723610815	 0.099158
H	-0.8864152791	-2.7430027618	 0.7254156292	 0.085198
H	-2.7141290499	-2.1314054384	 2.18634425	 0.098313
H	-1.4002197078	-1.4339085059	 3.1696492216	 0.110517
H	-3.5394210567	-0.5470685812	 0.2869316364	 0.099939
H	-2.7243054919	 1.0507992443	 0.3048550666	 0.114376
H	-1.7516349577	-0.5677086516	-1.9826942681	 0.282242
