19
gdb 64931	4.17723	0.70919	0.66321	2.2893	88.4	-0.2285	0.0309	0.2595	1743.5563	0.159143	-381.986154	-381.976766	-381.975822	-382.022121	34.003	
C	 0.3020295326	 1.241287057	 0.6274797585	-0.459085
C	-0.020669188	-0.0442793191	-0.1158120328	 0.095202
C	 0.5103151202	-0.222299715	-1.5030751898	-0.259309
N	 1.0832985843	-0.9995185028	-0.3977800999	-0.328835
C	-1.277987539	-0.657635495	 0.2406172857	 0.07248
C	-2.34120848	-1.1385848993	 0.5463339987	 0.119877
C	-3.5982083353	-1.7164461231	 0.9288445297	-0.165605
C	-3.7647968038	-3.2015287299	 0.9254658329	-0.225762
N	-3.7135259486	-2.4781229769	 2.1992855629	-0.308392
H	 1.2472965918	 1.6657896054	 0.2731557726	 0.11127
H	-0.4852283752	 1.9861416923	 0.4770198136	 0.135883
H	 0.385617569	 1.0557363182	 1.7029951402	 0.133284
H	-0.0585982138	-0.8033859677	-2.2219465558	 0.127366
H	 1.0820567829	 0.6004004297	-1.9259732071	 0.11372
H	 1.9602352816	-0.5779229162	-0.0984057325	 0.230786
H	-4.474643556	-1.107654815	 0.7210644056	 0.114976
H	-4.734231546	-3.6231911079	 0.6752373432	 0.123707
H	-2.9088635576	-3.7961103763	 0.6209768575	 0.127958
H	-2.7847457392	-2.5711449784	 2.6043802668	 0.240482
