18
gdb 41477	3.21544	1.68348	1.35368	1.9419	70.62	-0.2271	0.0617	0.2888	968.1239	0.150001	-439.031443	-439.024462	-439.023518	-439.062768	27.893	
C	 0.1633463285	 1.5731503798	 0.3422507151	-0.194512
N	 1.5870914343	 1.4971464069	-0.1450647964	-0.399079
C	 1.3679851649	 0.1039766623	-0.5728542376	 0.289108
C	 1.8739313092	-0.5324643486	-1.8457794932	-0.200377
O	 1.6542114329	-1.9240619156	-1.6474594717	-0.255211
C	 1.9412069414	-2.2192651856	-0.2748071078	-0.106554
C	 1.5535110329	-0.9799769631	 0.5262806822	 0.080773
O	 0.1524269989	-0.9020761363	 0.8973669131	-0.309168
C	-0.0985563668	 0.1050946485	-0.0968897319	 0.048272
H	 0.0886096539	 1.7470237858	 1.4192023939	 0.118975
H	-0.4490467583	 2.3104393311	-0.1874317238	 0.105255
H	 1.7435327557	 2.1159118755	-0.9340173276	 0.220969
H	 1.3275676029	-0.2359689097	-2.7459373362	 0.111671
H	 2.9443448735	-0.3020386653	-1.9923600852	 0.096679
H	 1.3717171508	-3.1088266408	 0.0040991876	 0.124144
H	 3.0162148999	-2.4214180837	-0.14368511	 0.093461
H	 2.213115651	-0.7630830517	 1.3700802408	 0.088873
H	-0.9827770954	-0.1084682895	-0.7016646612	 0.086721
