14
gdb 127507	2.5202	1.43858	0.92115	4.8153	69.43	-0.2495	-0.0541	0.1954	1185.1297	0.101107	-470.018801	-470.010555	-470.009611	-470.052298	28.763	
C	-0.0262686683	 1.3787242524	-0.073774652	-0.311495
N	 0.0192884843	-0.0688888852	-0.0267202069	 0.158494
N	 0.1186997543	-0.8012300338	-1.149805572	-0.344063
C	 0.1294933445	-2.0448922467	-0.6862720636	 0.335094
O	 0.2181493722	-3.1232725511	-1.4746662763	-0.412873
C	 0.0349584059	-2.0297856605	 0.7239529194	 0.133887
C	 0.0110087993	-3.161277719	 1.6518417801	 0.08302
O	-0.0721185645	-3.0762778525	 2.8548733239	-0.27064
N	-0.0333093866	-0.7361652959	 1.0978001455	-0.265973
H	 0.8844413252	 1.7630918969	-0.5391475507	 0.159069
H	-0.8918120451	 1.7034693408	-0.6560975664	 0.15906
H	-0.1057553699	 1.7332354647	 0.9523400228	 0.174729
H	 0.2691844173	-2.8214429693	-2.3907177989	 0.315507
H	 0.0781139913	-4.1455826709	 1.1410011252	 0.086184
