14
gdb 131133	3.87888	1.06543	0.96548	1.4109	63.78	-0.2731	-0.0516	0.2215	1182.3906	0.100179	-473.817377	-473.809603	-473.808658	-473.850963	27.804	
O	-0.190100495	 1.4233549468	 0.0812202199	-0.426103
C	-0.0135390264	 0.0380173083	 0.0364963367	-0.044645
C	 0.8294531222	-0.3489870009	-1.1799374896	 0.129823
O	 1.205141706	 0.4866714846	-1.9626197415	-0.250549
C	 0.6575429042	-0.4744932561	 1.2872720366	 0.337688
N	 0.6179193846	-1.7516656894	 1.587697443	-0.20696
O	 1.3588789011	-1.8820814777	 2.7553886598	-0.159554
C	 1.8137652839	-0.673202643	 3.1169473427	 0.082681
C	 1.4133975372	 0.2736160932	 2.2320483224	-0.319865
H	 0.2408770874	 1.7630620237	-0.7207309162	 0.299632
H	-0.976399916	-0.4886039674	-0.0767751344	 0.128161
H	 1.0638651699	-1.424272895	-1.2863895015	 0.130015
H	 2.3998724421	-0.645677831	 4.022404051	 0.158311
H	 1.5951536889	 1.333611164	 2.2394122809	 0.141363
