17
gdb 36432	3.78721	1.12045	0.99268	1.4416	73.38	-0.2532	0.0444	0.2976	1202.9506	0.13499	-421.743568	-421.735527	-421.734583	-421.776769	30.235	
C	-0.5809388375	-0.3819890698	 0.8360569492	-0.454106
C	-0.0840224194	 0.2734431154	-0.0401796545	 0.296131
C	 0.5502998411	 1.083661561	-1.07157731	-0.366474
C	 1.78927945	 1.8030090914	-0.5454415352	 0.11506
O	 2.5197768592	 2.5016562091	-1.5935728774	-0.315793
C	 2.5053912706	 3.7369907681	-0.8539939232	 0.067683
C	 1.2907987572	 4.6129192801	-1.1822968581	-0.093114
O	 0.4803796253	 3.9019428829	-0.2060023669	-0.289524
C	 1.6056976371	 3.1208000629	 0.2345936921	 0.051279
H	-1.0349458114	-0.9645409018	 1.5988285748	 0.197383
H	 0.8533082867	 0.4571646774	-1.9193476516	 0.139661
H	-0.151596365	 1.8336430513	-1.4514346695	 0.147715
H	 2.4537443342	 1.0994202896	-0.0272156531	 0.092526
H	 3.4937758697	 4.1830299066	-0.7369102336	 0.093364
H	 1.3934842616	 5.6708692692	-0.9098820753	 0.107745
H	 0.9078021475	 4.5192520179	-2.2035272349	 0.117135
H	 1.7414613529	 3.1328696786	 1.3163314472	 0.093329
