17
gdb 83913	2.4966	1.52476	1.23953	3.6687	73.48	-0.246	0.0125	0.2585	1051.2487	0.138109	-418.002159	-417.994437	-417.993493	-418.034319	30.028	
O	 0.0324319258	 1.3700910012	-0.0162825816	-0.419491
C	-0.0259838129	-0.0056878258	 0.0423894878	 0.089095
C	-1.3479124224	-0.7423553618	 0.0515895712	-0.139813
C	-2.6131797703	 0.0482598395	-0.2852659689	-0.237821
C	-2.5974055721	 0.1492760528	-1.8250196922	-0.162364
N	-1.152824911	 0.1780779753	-2.1421758388	-0.379272
C	-0.4932227099	-0.7384005764	-1.2174236359	 0.148451
C	 0.1646840232	-1.8982279208	-1.7348575914	 0.200254
N	 0.7078295559	-2.8264913488	-2.1646675236	-0.347962
H	-0.2860458208	 1.5990002966	-0.9093309699	 0.292609
H	 0.7897476426	-0.4458148643	 0.6074679126	 0.122953
H	-1.4186529666	-1.6511841249	 0.6365188576	 0.116714
H	-3.5101064732	-0.4558235795	 0.0780521589	 0.116957
H	-2.5686680138	 1.0424467874	 0.1702129303	 0.129819
H	-3.0995266497	-0.7236645703	-2.2681839638	 0.108757
H	-3.0830250842	 1.053892693	-2.2019720357	 0.115151
H	-0.9406153506	-0.0345377434	-3.1087649565	 0.245965
