18
gdb 110799	2.81215	1.25961	1.04751	2.2321	75.87	-0.2444	0.0208	0.2652	1217.3539	0.145806	-439.03041	-439.021375	-439.020431	-439.064824	32.189	
C	 0.236770878	 0.7679183466	-0.5259006722	-0.242262
O	-0.437575646	-0.0796348643	 0.3904360832	-0.230085
C	 0.3996173488	-0.6358021011	 1.3321046715	 0.113126
C	 0.1226544894	-1.9802540784	 1.888628446	 0.026537
O	-0.4785170712	-2.8350442019	 0.8960824733	-0.272163
C	 0.6796067176	-2.7412706327	 0.1081631102	 0.505119
N	 0.9827810701	-3.320972695	-0.954576469	-0.34584
C	 0.0278971618	-4.2378542098	-1.561163482	-0.339628
C	 1.3707642225	-1.7855835613	 1.0242035699	-0.321054
H	 1.0048622254	 0.2177069274	-1.0847036722	 0.130229
H	-0.5167159053	 1.1445951764	-1.2200863643	 0.135258
H	 0.7100006506	 1.6189142328	-0.0140952649	 0.108012
H	 0.8249066173	 0.0684552391	 2.0532211283	 0.101377
H	-0.0154419342	-2.2541170552	 2.9262297291	 0.124602
H	 0.5120856042	-5.2087453521	-1.7113948725	 0.126792
H	-0.886667434	-4.3835746902	-0.9753885542	 0.130447
H	-0.2467898622	-3.8610470834	-2.5525761463	 0.129152
H	 2.4255930673	-1.7628900469	 1.256745906	 0.120384
