17
gdb 56341	2.60676	1.01014	0.82847	3.0477	66.94	-0.2583	0.0275	0.2858	1387.7216	0.135093	-492.318225	-492.308509	-492.307565	-492.354586	33.539	
N	-0.9117501428	 1.109368412	-0.2820207542	-0.561217
C	-0.6334786994	-0.1873885033	 0.0316975411	 0.498517
O	-0.2626513144	-0.5863844198	 1.1115999204	-0.401022
O	-0.8718291455	-0.9806005661	-1.0484673619	-0.258651
C	-0.6622979226	-2.3835040575	-0.8415847293	-0.066805
C	-1.8781207381	-3.0495813818	-0.2149844211	-0.103147
O	-2.9983097164	-3.027004006	-1.0920486257	-0.179878
C	-3.8654981688	-2.0020401132	-0.9633593731	 0.132889
N	-4.792902359	-1.852576345	-1.8054207097	-0.444808
H	-0.595900827	 1.8071329866	 0.368972898	 0.272662
H	-1.0153767461	 1.3670887284	-1.2487129368	 0.271271
H	-0.4791229174	-2.7941072134	-1.8366543118	 0.129233
H	 0.2104897667	-2.5375101169	-0.2017961559	 0.1344
H	-1.651473488	-4.103514607	-0.026760297	 0.12469
H	-2.1153489086	-2.5708132099	 0.7419410734	 0.133582
H	-3.6781413144	-1.379734118	-0.0779525356	 0.09105
H	-5.3714617283	-1.0574672592	-1.5428263106	 0.227234
