17
gdb 26063	3.255	1.1717	0.9168	0.9347	79.07	-0.2232	0.0192	0.2424	1254.1407	0.135246	-384.683723	-384.675177	-384.674233	-384.717393	31.991	
C	 0.232711169	 1.3414738585	 0.3280707912	-0.379879
C	-0.0862887976	-0.1357773611	-0.0100982893	-0.295312
C	-1.531205144	-0.3342075361	-0.1343364554	 0.33871
C	-2.7214867875	-0.4699080709	-0.2317829409	-0.469258
C	 0.6551227124	-0.5960420769	-1.2433591713	 0.253409
C	 0.1349585128	-0.9724238423	-2.4417447526	-0.092021
O	 1.1224215052	-1.307601204	-3.3151171109	-0.148956
C	 2.2997506951	-1.1428754874	-2.6587826057	 0.004391
C	 2.0821918578	-0.7102846912	-1.3912952114	-0.291961
H	 1.3099664022	 1.4752997809	 0.4595768137	 0.118694
H	-0.100276645	 1.9956060771	-0.4816392877	 0.132071
H	-0.2726964559	 1.6413713298	 1.2497633454	 0.124858
H	 0.2596824714	-0.7459276514	 0.8367869564	 0.116256
H	-3.7724536344	-0.6006239371	-0.3101710714	 0.196587
H	-0.874191688	-1.0585229927	-2.806309245	 0.147358
H	 3.1879531858	-1.3740192007	-3.223376616	 0.136301
H	 2.8353572907	-0.5009519943	-0.6470983289	 0.108753
