15
gdb 98392	3.16438	1.04657	0.79364	3.6222	64.83	-0.2597	-0.052	0.2077	1347.7816	0.110352	-491.127127	-491.117344	-491.1164	-491.164826	32.309	
N	 0.1630614492	 1.4724877221	-0.0420945409	-0.483365
C	 0.0582054826	 0.0308407757	 0.036676926	-0.29305
C	-1.3891328172	-0.4943367002	-0.037081219	 0.41937
O	-2.3165429798	 0.2725890342	-0.1314781446	-0.32098
N	-1.6162207245	-1.9030312037	 0.0016700502	-0.225274
C	-2.9806311707	-2.3404178236	-0.1106550659	 0.1694
O	-3.3359364722	-3.4798408005	-0.0664255175	-0.245455
C	-0.5485751028	-2.8259730346	 0.141028932	 0.171563
O	-0.6584319026	-4.0166395755	 0.1406656471	-0.243524
H	-0.2645324742	 1.7953704642	-0.9053715614	 0.242583
H	-0.3926661881	 1.8918370096	 0.6979450912	 0.243126
H	 0.644843456	-0.4189212266	-0.7731690231	 0.148714
H	 0.515452971	-0.3118318467	 0.9727943525	 0.14947
H	-3.6423986505	-1.474724112	-0.2397315602	 0.150891
H	 0.4218747536	-2.3195005824	 0.2549404335	 0.116533
