19
gdb 79826	2.13959	1.90657	1.67756	1.3741	73.55	-0.2413	0.0739	0.3152	946.8535	0.160527	-423.006157	-422.998477	-422.997533	-423.037642	31.585	
O	 0.0052503369	 1.4617748147	 0.1659189834	-0.438724
C	-0.02649468	 0.0609930555	-0.0111800784	 0.102534
C	-1.3971917936	-0.5862953914	-0.0153120658	-0.093362
C	-2.0807222537	-0.4632928498	-1.366068347	-0.042999
C	-1.6585383821	 0.6573112281	-2.3205771973	-0.235512
C	-0.1431425816	 0.421180008	-2.5353567735	-0.254678
C	 0.2520558951	-0.5540694676	-1.4185434452	 0.351688
O	 1.5385633927	-1.1030544934	-1.50706696	-0.504519
C	-0.9912845871	-1.475657685	-1.1892531997	-0.163463
H	 0.9238334221	 1.7304107774	 0.2685930044	 0.284861
H	 0.626532654	-0.4488594274	 0.7094605696	 0.079085
H	-1.9601009909	-0.8536914695	 0.871038678	 0.082497
H	-3.1112532679	-0.8019573849	-1.377032695	 0.083189
H	-2.2120494265	 0.588496964	-3.2619693748	 0.092597
H	-1.8522679092	 1.6432569284	-1.8910899116	 0.118094
H	 0.0494836139	-0.0488493076	-3.5090536962	 0.078225
H	 0.441661414	 1.3428563734	-2.4820587496	 0.099548
H	 1.6612542277	-1.4409930068	-2.401043395	 0.275394
H	-1.0508548339	-2.5496003362	-1.3003367563	 0.085544
