15
gdb 51451	3.17529	1.11429	0.91197	4.914	68.53	-0.2544	-0.0351	0.2194	1237.3101	0.111269	-457.766073	-457.758051	-457.757107	-457.800113	28.525	
O	-0.058459669	-0.0188410028	 0.007404925	-0.266162
C	-0.01569333	 1.1718845283	 0.0043387972	 0.174787
O	 1.1443713598	 1.858099249	-0.1040552095	-0.190626
C	 1.0948754458	 3.2740911389	-0.1341663211	-0.003487
C	 2.1730554072	 4.0031480034	 0.6598033801	-0.075844
C	 3.5125356316	 3.6757327047	 0.1054812225	-0.281872
C	 2.6769356137	 4.7170064778	-0.6312851145	-0.179888
C	 1.6237209899	 4.0039342524	-1.4177665116	 0.394742
O	 1.2049521434	 4.0706335983	-2.5354196978	-0.303185
H	-0.8972649156	 1.8359852517	 0.0934123588	 0.084821
H	 0.0811735301	 3.632846819	 0.0858819126	 0.115437
H	 2.0267726596	 4.4562195637	 1.6308434196	 0.1168
H	 4.3614745092	 4.0934148289	 0.6356511426	 0.137406
H	 3.6959984198	 2.7053886138	-0.3428375711	 0.15232
H	 3.0249903643	 5.7311212428	-0.774541763	 0.124751
