17
gdb 98805	2.79422	1.27207	0.92931	1.5356	70.66	-0.2464	0.0138	0.2602	1240.1066	0.136311	-455.200574	-455.191378	-455.190434	-455.235516	32.039	
C	 0.0427012661	 1.3870148087	-0.2508039665	-0.332974
N	-0.1647550446	-0.0475552276	-0.2875162128	-0.310534
C	-1.2649151368	-0.6389107149	 0.2458205128	 0.393383
O	-2.1675436842	-0.0522811518	 0.8167053328	-0.382505
C	-1.2562057303	-2.1577897984	 0.0952789228	-0.275695
C	-2.6144825444	-2.8494679413	-0.1955401717	-0.1682
N	-2.0111210222	-3.3375170446	-1.4488058491	-0.32522
C	-0.8142862804	-2.7004990132	-1.2853705076	 0.435615
O	 0.1693635195	-2.5712232348	-1.9730339685	-0.380159
H	 1.0308082346	 1.6279147602	 0.1546073806	 0.127405
H	-0.0425299416	 1.8313857681	-1.2492024671	 0.129583
H	-0.7257664986	 1.8166327195	 0.392719771	 0.166988
H	 0.4460643501	-0.6242895088	-0.8519369291	 0.268995
H	-0.6964294548	-2.6002021541	 0.9234596027	 0.133726
H	-2.901852655	-3.6437423555	 0.4976077016	 0.120031
H	-3.4406014238	-2.1485260796	-0.3320464095	 0.142331
H	-2.4014822433	-3.8209764017	-2.2439771423	 0.25723
