18
gdb 116594	5.32195	0.84091	0.7609	0.4259	80.92	-0.2364	0.0073	0.2436	1514.4527	0.148434	-435.301057	-435.292056	-435.291112	-435.336518	32.217	
C	-0.0358118566	 1.6037408006	 0.0132174442	-0.357319
C	 0.1416102567	 0.084324215	 0.0300635965	-0.142223
N	 0.8574265381	-0.3558758538	-1.1605378483	-0.377372
C	 1.8691892769	-1.0910400742	-1.0483297202	 0.518794
N	 2.6267511259	-1.553506258	-2.1216133854	-0.404448
C	 3.6911889391	-2.3397805933	-1.7367419169	 0.380022
N	 4.5962132644	-2.9342205681	-2.3968711873	-0.548667
C	 3.5825812426	-2.3738334889	-0.221921568	-0.154307
O	 2.4308978041	-1.5837216102	 0.0972720525	-0.256214
H	 0.9340606083	 2.1091827687	 0.0578330663	 0.114445
H	-0.5388275291	 1.9211309044	-0.9047635582	 0.122237
H	-0.6330062	 1.9321255983	 0.8699599309	 0.107269
H	 0.6377465344	-0.2262355098	 0.9583789602	 0.107369
H	-0.8487061354	-0.3903005421	 0.0218176094	 0.103924
H	 2.3846860882	-1.3058560162	-3.0662659085	 0.272017
H	 4.4976633147	-2.788301683	-3.4020455558	 0.214952
H	 3.4425027287	-3.3939241619	 0.1471051462	 0.14995
H	 4.4692250592	-1.9424325677	 0.2519461724	 0.149572
