18
gdb 7989	3.40289	1.59131	1.15972	2.2125	67.78	-0.2368	-0.0167	0.2202	1031.2008	0.153179	-384.977578	-384.96937	-384.968425	-385.010195	30.739	
C	-0.2195694826	 1.5241497078	-0.0078976781	-0.404317
C	 0.0959902918	 0.0303699153	-0.029667079	-0.082183
C	 0.8807781372	-0.5035764545	-1.2379229946	-0.233614
C	 1.5181912532	-1.8100758421	-0.7412010045	 0.114364
O	 2.5885082859	-2.1630557862	-1.5983485408	-0.430722
C	 1.9306400339	-1.487450003	 0.7057987861	-0.356377
C	 0.9248156332	-0.4348395357	 1.1801159894	 0.400591
O	 0.802505252	-0.0276238006	 2.3065590626	-0.320634
H	 0.6916847207	 2.1167316531	-0.1418140244	 0.119343
H	-0.9178812632	 1.7941663775	-0.8053819145	 0.114934
H	-0.6611640927	 1.7999810278	 0.9531042446	 0.138885
H	-0.8492181338	-0.5308005809	 0.0511343563	 0.104054
H	 0.2690288928	-0.6512887575	-2.1308291391	 0.107303
H	 1.690420965	 0.1888860966	-1.5010321432	 0.113008
H	 0.7539103382	-2.6040842731	-0.7351243019	 0.071628
H	 2.9394787906	-3.0114359956	-1.31022189	 0.284316
H	 1.9775620771	-2.3390624811	 1.3894143251	 0.120144
H	 2.9233701706	-1.0175489579	 0.691056026	 0.139277
