17
gdb 80605	2.90258	1.47694	1.25839	1.7872	67.82	-0.2551	-0.0253	0.2298	1030.5554	0.135676	-458.947309	-458.939406	-458.938461	-458.979672	30.438	
C	-0.0839139152	 1.5292487633	-0.0018041622	-0.414813
C	 0.0526958107	 0.0083563024	-0.0023814621	-0.047818
C	 1.0104688167	-0.5385620822	-1.0867514253	-0.064212
O	 2.3345596411	-0.3965852174	-0.4591446035	-0.308795
C	 1.8790120894	-1.407584468	 0.5097730315	-0.103996
C	 0.797475346	-0.6016041984	 1.25904521	 0.138885
O	 1.367990405	 0.3509554212	 2.122424707	-0.427756
C	 1.124612896	-2.023765468	-0.6881421425	 0.458962
O	 0.8941859236	-3.0981521919	-1.1426538237	-0.309671
H	 0.892793509	 2.0194552194	-0.0486118327	 0.121224
H	-0.6637872091	 1.8580932009	-0.8696986181	 0.118464
H	-0.5899112214	 1.8773326947	 0.9018931783	 0.136576
H	-0.936939964	-0.4499921695	-0.1062549033	 0.09485
H	 0.9552912271	-0.1644159862	-2.1075966132	 0.10636
H	 2.6729954887	-1.8895168763	 1.0765345596	 0.109745
H	 0.1417788915	-1.2230464192	 1.8728872396	 0.102596
H	 2.0523021447	 0.8074266251	 1.6166629107	 0.289398
