23
gdb 109833	2.98066	0.8414	0.78796	2.6727	86.84	-0.2429	-0.0172	0.2257	1587.8755	0.203187	-388.293714	-388.282849	-388.281905	-388.330969	38.39	
C	-1.4797960318	 1.7235288679	-2.3169369937	-0.377338
C	-0.9076931495	 0.3415404638	-1.9763202068	-0.192246
C	-1.8485548103	-0.4746300502	-1.1104547911	-0.029586
C	-2.9489893538	-1.3572433543	-1.669709202	-0.012767
C	-3.2099684095	-1.5247569203	-3.1531323873	-0.412705
C	-1.7571146352	-1.9810292254	-0.9667714608	-0.065463
C	-0.7185727528	-2.8164145138	-1.7006715027	-0.301832
C	-1.173661017	-4.2547369023	-1.834806255	 0.171492
O	-1.2208757261	-4.8721037519	-2.8672708434	-0.241794
H	-0.7724904673	 2.3095154535	-2.9120186382	 0.111387
H	-2.4098287809	 1.6357670606	-2.8876932353	 0.120891
H	-1.7028384623	 2.2928180809	-1.4077861122	 0.11429
H	-0.6685998222	-0.1874451382	-2.9040596556	 0.09721
H	 0.04692515	 0.4643870245	-1.4475220811	 0.096788
H	-2.1104114302	 0.0438321603	-0.1895575679	 0.080274
H	-3.864608534	-1.3629756254	-1.0829135046	 0.082423
H	-2.2995936843	-1.4835847239	-3.7553841395	 0.121636
H	-3.6882397768	-2.488510618	-3.3582586225	 0.128003
H	-3.879375359	-0.7383653241	-3.5185754003	 0.118079
H	-1.9578489277	-2.3587152694	 0.0338379116	 0.08401
H	-0.485467313	-2.4395664175	-2.6976617247	 0.120389
H	 0.2161175463	-2.8197909587	-1.119612528	 0.118421
H	-1.4837690827	-4.7270111181	-0.872129449	 0.068437
