21
gdb 114922	2.78373	1.2977	0.96841	1.1627	81.31	-0.2364	0.0257	0.2622	1278.7794	0.181862	-424.23278	-424.223203	-424.222259	-424.267453	35.616	
C	-0.0079139874	 1.1552981923	 0.6464448049	-0.251429
O	-0.0928527582	 0.1150766202	-0.3131388268	-0.258251
C	-1.32167265	-0.6017616227	-0.2825013591	 0.076349
C	-1.6166246421	-1.139123636	-1.7014191643	-0.280825
C	-1.3441560078	-2.6172495352	-1.6018355531	-0.17438
C	-1.1154260371	-3.029952598	-0.3549007153	 0.302691
C	-0.8199923401	-4.414785602	 0.1248087611	-0.490884
C	-1.1880781863	-1.8767388772	 0.6294046974	 0.023938
O	-0.0699836851	-1.8123363722	 1.5000897656	-0.429959
H	 0.9589114	 1.6442602058	 0.5007886216	 0.125358
H	-0.8058288472	 1.8975615977	 0.4961149077	 0.109426
H	-0.0675359593	 0.7713148802	 1.6721595554	 0.12788
H	-2.1158790008	 0.0640742914	 0.0754865994	 0.065592
H	-2.6551998301	-0.936904022	-1.9939786122	 0.105102
H	-0.9789350992	-0.6289759863	-2.4318808198	 0.117933
H	-1.3587216821	-3.2656968975	-2.4724315373	 0.086047
H	-0.7090740852	-5.1181188377	-0.704800283	 0.117705
H	 0.0978654608	-4.4237127133	 0.7223171281	 0.136694
H	-1.6194486126	-4.7839550793	 0.7808312409	 0.122933
H	-2.0610591839	-1.9807064087	 1.2868552566	 0.083591
H	 0.6457498436	-1.4479850797	 0.961784592	 0.284491
