15
gdb 131213	5.75351	0.93809	0.84999	3.514	68.15	-0.2233	0.0203	0.2435	1296.0722	0.113584	-453.933365	-453.925473	-453.924529	-453.966609	28.99	
O	-0.302622812	 1.2737706165	 0.2630077742	-0.428314
C	-0.0599343771	-0.0266036	-0.0029795214	 0.469787
C	-0.0792256436	-0.7961147785	-1.147041127	-0.470929
C	 0.2816534051	-2.0916086457	-0.6941405039	 0.393942
N	 0.5148329253	-2.1158324346	 0.6145442003	-0.304717
N	 0.2907281084	-0.8406621948	 1.0166899293	-0.249247
C	 0.3873504644	-3.3168317651	-1.5180095846	-0.038275
C	 0.745851608	-4.6176683592	-0.9412575792	-0.169022
O	-0.6027725481	-4.3433397035	-1.3136439368	-0.231834
H	-0.5563519705	 1.7153626895	-0.5533142983	 0.31554
H	-0.3266032274	-0.4826574182	-2.1482086122	 0.104346
H	 0.4093054989	-0.5850733609	 1.9823912135	 0.279769
H	 0.6095323859	-3.1380553067	-2.5698159223	 0.087769
H	 1.2665190103	-5.3498451039	-1.5578614094	 0.106308
H	 0.9310795123	-4.6772420849	 0.1285206879	 0.134878
