14
gdb 4149	3.338	1.54228	1.12623	4.1953	66.16	-0.2657	-0.0185	0.2472	1006.2356	0.106697	-378.679221	-378.671532	-378.670588	-378.71184	27.453	
O	-0.1123592905	 1.3398546317	 0.0414117246	-0.38293
N	 0.0251757341	-0.0502830734	 0.113598568	-0.213583
C	-1.0950260471	-0.6261923203	 0.015670462	 0.417921
C	-2.5355366802	-0.2292259672	-0.2217966414	-0.320829
C	-2.8577798824	-1.7366282818	-0.4624504486	-0.232537
C	-1.4047627026	-2.1219497162	 0.0117131994	-0.236733
C	-0.619520898	-2.9836010545	-0.8574064673	 0.287636
N	-0.015114159	-3.6706913509	-1.5634480079	-0.323872
H	 0.8016075926	 1.6403531873	 0.0989250869	 0.315152
H	-3.0173054817	 0.201122165	 0.661584403	 0.136509
H	-2.6978134547	 0.448810974	-1.0628196506	 0.143323
H	-3.6594682932	-2.1667766086	 0.1374183458	 0.125228
H	-3.0228830186	-1.9781903962	-1.5123923493	 0.140447
H	-1.4025705688	-2.5383335788	 1.0249503155	 0.144268
