19
gdb 80847	2.0788	1.69304	1.57458	1.3392	76.12	-0.2294	0.0085	0.2379	1013.3346	0.158552	-423.000474	-422.991946	-422.991002	-423.033008	33.669	
C	 0.0372722876	 1.4434168721	-0.010853108	-0.51743
C	 0.0064201119	-0.0431996441	-0.0545974758	 0.259182
C	-0.0483558	-0.9302314624	-1.0580539917	-0.23237
C	-0.0187999194	-2.289581399	-0.3440536474	-0.126704
C	 1.0862695147	-2.0237779191	 0.7354047767	-0.248954
C	 0.0564699465	-0.95232793	 1.198490297	 0.278648
O	 0.1674893424	-0.3623782148	 2.4555767362	-0.485907
C	-1.0392775883	-2.0200762215	 0.8233280729	 0.104917
O	-2.3552514285	-1.6381841596	 0.5759360729	-0.443636
H	 0.9327773393	 1.7996735806	 0.5120563305	 0.142111
H	 0.0249698145	 1.8765031007	-1.0148323332	 0.125853
H	-0.8190200848	 1.8475533945	 0.5446399816	 0.122247
H	-0.0835184424	-0.7604921258	-2.1258802312	 0.099603
H	-0.044611875	-3.2005629969	-0.937796214	 0.068863
H	 1.2136854299	-2.8376057891	 1.4556706038	 0.100355
H	 2.04802312	-1.6596581308	 0.3719047093	 0.101954
H	-0.7136269057	-0.089514875	 2.7343235936	 0.286824
H	-1.0769185735	-2.8354987299	 1.5510252192	 0.091581
H	-2.316281889	-0.97539146	-0.1282691223	 0.272862
