17
gdb 76216	2.54989	1.6227	1.0041	5.1237	80.25	-0.2196	-0.0723	0.1473	1149.2859	0.135811	-418.059731	-418.050785	-418.049841	-418.093683	32.097	
C	-0.0249481089	 1.4533793339	-0.0277101821	-0.356223
N	-0.0145831948	 0.0050630756	-0.0102257632	-0.130064
C	-1.1153861653	-0.8402515598	 0.0192656702	 0.364702
C	-2.4903571675	-0.2661357119	 0.0364732289	-0.498892
C	-0.7627688093	-2.1597614257	 0.0289145515	-0.380308
C	 0.6817626024	-2.2354743573	 0.0044311326	 0.349073
O	 1.4603770444	-3.1680819006	 0.0019664698	-0.350677
C	 1.1460406546	-0.7643215809	-0.0214304265	 0.260425
N	 2.324915149	-0.3030503565	-0.0477668088	-0.522252
H	 1.0159300267	 1.7787583405	-0.0498143263	 0.181412
H	-0.5362852119	 1.8436626856	-0.9144126219	 0.133108
H	-0.505258493	 1.8653640054	 0.8664881151	 0.133111
H	-2.6697663841	 0.3538063788	-0.8493412133	 0.150956
H	-3.2343070724	-1.0631235953	 0.0595643571	 0.150186
H	-2.6385863129	 0.375780471	 0.9123383193	 0.150939
H	-1.4460765795	-2.9936481398	 0.0509787812	 0.117125
H	 2.9705412226	-1.0984555931	-0.0495701635	 0.247379
