17
gdb 52530	3.70767	0.76682	0.74567	4.4853	82.01	-0.2582	-0.0597	0.1985	1615.4424	0.132255	-421.797773	-421.787706	-421.786762	-421.835504	34.031	
C	-0.2570523111	 1.6152534105	 0.7596987098	-0.502721
C	-0.1199492323	 0.2293091136	 0.3483684708	 0.084324
C	-0.0254785702	-0.9234803938	 0.0020334486	 0.024078
C	 0.0961961057	-2.3083593882	-0.4023817396	 0.222786
O	-0.8449796371	-2.9576271184	-0.8090238175	-0.297562
C	 1.496129985	-2.8549975817	-0.3002406709	-0.065504
O	 1.6534598265	-4.2667845306	-0.3359377323	-0.229555
C	 2.144913572	-3.5394035292	-1.453084743	 0.084987
C	 1.4821222795	-3.7692027996	-2.7842885687	-0.432444
H	 0.7181091028	 2.0811874867	 0.934084868	 0.15921
H	-0.7839523332	 2.1980138268	-0.0033582229	 0.165594
H	-0.8358366451	 1.6846517192	 1.6873021343	 0.167131
H	 2.1376018356	-2.330079954	 0.4078750614	 0.103115
H	 3.2343453013	-3.4612903235	-1.4791195156	 0.098375
H	 0.396938167	-3.7965022247	-2.6801522599	 0.165926
H	 1.7621671266	-2.9787765213	-3.4887354239	 0.120876
H	 1.8189117169	-4.7240446217	-3.2013789686	 0.131386
