13
gdb 129287	3.44651	1.37336	0.98204	0.9626	73.82	-0.2736	-0.1096	0.1639	1093.6288	0.089069	-452.711339	-452.703875	-452.702931	-452.745048	26.831	
N	 0.0537670543	 0.9959148283	-1.034747707	-0.469076
C	 0.0203075222	 0.1479360535	-0.0910216217	 0.379641
O	 1.2433214171	-0.1627375709	 0.5078684472	-0.293376
N	 1.5702055069	-1.0199610477	 1.5347036818	-0.038076
C	 0.740110885	-1.7460581342	 2.1787567131	-0.029795
C	-0.7332258027	-1.9920256041	 2.1536544297	 0.325151
O	-1.1759388151	-2.7910006294	 2.9589134641	-0.309423
C	-1.6209038657	-1.3097452886	 1.2073188673	-0.179609
C	-1.2782948968	-0.415644601	 0.2748469213	-0.082965
H	 1.0113293556	 1.3154614269	-1.1968018572	 0.24461
H	 1.2321112043	-2.3415486549	 2.9462390439	 0.159071
H	-2.6626911513	-1.5947480371	 1.3137393401	 0.139803
H	-2.0537261137	 0.0054407494	-0.3560285026	 0.154045
