22
gdb 10879	2.59921	1.87255	1.62443	0.2259	82.97	-0.2812	0.095	0.3762	985.0538	0.199874	-313.032184	-313.023528	-313.022584	-313.064525	33.703	
C	-0.1207155921	 1.6415935398	 0.1655108928	-0.444965
C	 0.0106360276	 0.1246301323	 0.1172715762	 0.026339
C	 1.139880733	-0.5862262061	-0.695060612	-0.076202
C	 2.1373036375	-0.1649934333	 0.4202095547	-0.271735
C	 0.8650145273	-0.6688496438	 1.1724906202	 0.323843
C	 0.648327576	-0.7357694306	 2.6622311915	-0.519637
C	 0.877704004	-1.8697105699	 0.1578621419	 0.032343
C	-0.3257001204	-2.7767202595	-0.060183622	-0.449862
H	 0.825592635	 2.1652980709	 0.3202920768	 0.115838
H	-0.5530884884	 2.0152144419	-0.7697806242	 0.11442
H	-0.7979387655	 1.9401663276	 0.9742363543	 0.113646
H	-0.984277401	-0.298452408	-0.0452400202	 0.055285
H	 1.3041335997	-0.5383732252	-1.7736198253	 0.059092
H	 3.034265306	-0.782922183	 0.5271299041	 0.082086
H	 2.3886139525	 0.8926605382	 0.5043228229	 0.086336
H	 0.682669771	 0.2621731041	 3.1138136151	 0.117512
H	-0.3263379239	-1.1760182041	 2.9019851835	 0.115948
H	 1.4189102586	-1.3464395922	 3.1462849633	 0.116115
H	 1.7755849837	-2.4913353743	 0.2641846534	 0.054576
H	-1.2677837396	-2.2421457995	-0.202644197	 0.11855
H	-0.1698022946	-3.4056247302	-0.9440143982	 0.115649
H	-0.4555145367	-3.4497011151	 0.7952900381	 0.114823
