19
gdb 32323	2.9412	1.28819	0.97008	3.7821	78.62	-0.1846	0.0415	0.2261	1241.1884	0.159771	-419.276941	-419.267524	-419.266579	-419.311294	34.142	
C	-0.1385597612	 1.5548082124	 0.029086837	-0.372273
C	 0.0375636775	 0.024709159	 0.0125479945	-0.296986
C	 0.7549470805	-0.4987234328	-1.1883611735	 0.2975
C	 2.0343714765	-0.9155064027	-1.3135429575	-0.189218
N	 2.2368619633	-1.276123166	-2.6439885716	-0.357401
C	 1.0797122691	-1.1095474123	-3.3835652261	 0.45088
O	 0.8900895924	-1.3459114955	-4.5641058534	-0.448665
N	 0.1654726376	-0.6087805861	-2.4565651847	-0.151476
C	-1.2088620445	-0.3555816511	-2.8244574809	-0.353875
H	 0.8340261672	 2.0539681679	-0.0096195271	 0.124466
H	-0.725352542	 1.9043269479	-0.8255087518	 0.12469
H	-0.6535418189	 1.8735942995	 0.9407220603	 0.115913
H	 0.604819742	-0.2817366015	 0.8978319194	 0.11449
H	-0.9454298881	-0.4557336974	 0.1008678632	 0.110009
H	 2.8147264873	-0.9783584445	-0.5749000341	 0.134568
H	 3.0751514036	-1.651633207	-3.0489136089	 0.265971
H	-1.3086334783	-0.6442053292	-3.8725560895	 0.17179
H	-1.9020576265	-0.9509152243	-2.220498686	 0.129022
H	-1.4707530875	 0.7026281139	-2.7204579596	 0.130596
