14
gdb 129684	3.09473	1.31783	0.92883	6.4061	69.32	-0.2309	-0.0245	0.2064	1167.2874	0.101873	-470.007418	-469.999359	-469.998415	-470.040821	28.742	
N	-0.1972510645	 1.4304718492	 0.0112281278	-0.626446
C	 0.0114274044	 0.026310488	-0.0130043974	-0.048218
C	-1.0044911233	-0.8948337467	 0.0010284287	 0.569238
N	-2.354487284	-0.6320247508	 0.0397750088	-0.40892
C	-3.4120260155	-1.5204173326	 0.0541994214	 0.150107
O	-3.326461114	-2.7200516161	 0.03492223	-0.274839
O	-0.5340521059	-2.1369309391	-0.0278779612	-0.197629
N	 0.879683739	-2.0764635859	-0.0639671961	-0.148655
C	 1.1677775779	-0.7992456326	-0.0538935771	-0.006559
H	 0.2294818348	 1.8651990558	 0.823166858	 0.24991
H	 0.1855535071	 1.8868956237	-0.8106515573	 0.249917
H	-2.5546995363	 0.3602568662	 0.0588543452	 0.271037
H	-4.3713265943	-0.9687406443	 0.0870449102	 0.08962
H	 2.2077649246	-0.501615125	-0.0768453109	 0.131438
