23
gdb 119909	2.62534	0.95893	0.88586	1.2255	83.41	-0.2306	0.08	0.3105	1492.9283	0.202002	-425.408986	-425.39787	-425.396926	-425.445088	40.502	
C	-0.1063618766	 1.476693807	 0.0841543719	-0.387335
C	-0.2038522988	-0.0153480575	 0.35007238	-0.031426
O	-1.2415799713	-0.5481868974	-0.4627064903	-0.253469
C	-1.4182493993	-1.9200860696	-0.3037144167	 0.037603
C	-2.3864986808	-2.4515228996	 0.7526275917	-0.083008
C	-3.0908528614	-1.5290487172	 1.722743366	-0.419047
C	-2.7420012218	-2.5079417962	-0.7151626256	 0.327267
C	-3.8190151095	-1.6362488634	-1.3174565106	-0.449326
O	-2.7026757642	-3.8185986849	-1.2295402286	-0.465544
H	 0.694401104	 1.9191729501	 0.6841992501	 0.115443
H	 0.1055571357	 1.665398303	-0.972101832	 0.126864
H	-1.0460591123	 1.97550936	 0.3386554603	 0.12519
H	 0.7485411762	-0.515360397	 0.1097507252	 0.088931
H	-0.4140659019	-0.2123130735	 1.4118601635	 0.094564
H	-0.5306248651	-2.5207845297	-0.5097352989	 0.081716
H	-2.1116180827	-3.4228205076	 1.1547991789	 0.093808
H	-3.1617398052	-0.5123263797	 1.3291360961	 0.127608
H	-4.1054569613	-1.8790488141	 1.9418511597	 0.118683
H	-2.5475929709	-1.4792050321	 2.6724449863	 0.115033
H	-3.769970154	-0.6143813959	-0.9392596346	 0.134234
H	-3.6965857093	-1.5858842863	-2.4066070895	 0.105738
H	-4.8101846769	-2.051421934	-1.1092392556	 0.120912
H	-2.4732273226	-3.7585596444	-2.1643049174	 0.275558
