23
gdb 95034	2.51966	1.62467	1.17411	0.2234	89.33	-0.2327	0.0319	0.2646	1147.9304	0.208987	-351.190901	-351.18275	-351.181806	-351.223648	32.905	
C	-0.2080720052	 1.5366707962	-0.0922707674	-0.415769
C	 0.1250892126	 0.0455459732	-0.0697806716	 0.045585
C	 0.951060222	-0.4643871992	-1.2627717378	-0.202963
C	 1.2943371751	-1.907421161	-0.8613381279	-0.225319
C	 1.5522097684	-1.8348461582	 0.6739188044	-0.044791
C	 3.00703889	-1.6966677973	 1.0430373157	-0.068276
C	 3.3003992883	-0.5094119434	 1.5667162703	-0.067299
C	 2.0982704346	 0.3949161714	 1.6591225894	-0.269404
C	 0.9086776054	-0.4835385961	 1.1607002788	-0.022563
H	 0.6905102309	 2.1588551435	-0.1558466666	 0.114956
H	-0.8313071984	 1.7787344294	-0.9599250607	 0.109724
H	-0.7593481756	 1.8385138892	 0.8051754937	 0.109309
H	-0.8279263136	-0.5035871666	-0.0856376079	 0.066964
H	 0.4141396783	-0.3984239216	-2.214446192	 0.087865
H	 1.8670566708	 0.1326514033	-1.3640377217	 0.097034
H	 0.4391519589	-2.5612197102	-1.0684777669	 0.090744
H	 2.1507351327	-2.3152017824	-1.4066264412	 0.090211
H	 1.1081656096	-2.7071035862	 1.1671005029	 0.067331
H	 3.7207115724	-2.4953393968	 0.8656728595	 0.085655
H	 4.2882776946	-0.1935948839	 1.8864470546	 0.086418
H	 1.9345662309	 0.757114172	 2.6818066722	 0.099708
H	 2.2447137831	 1.2954315903	 1.0491177394	 0.101284
H	 0.2217651043	-0.6535055155	 1.993892551	 0.063593
