18
gdb 110035	2.36501	1.5851	1.09569	4.1685	68.32	-0.25	0.0049	0.2548	1124.3182	0.148522	-476.247981	-476.239383	-476.238439	-476.281458	31.775	
C	-0.1300981475	 1.3989606927	 0.010451958	-0.332136
N	 0.2955720552	-0.0033904761	 0.1042912324	-0.311662
C	 0.729553927	-0.6297560215	-1.1351469785	-0.174767
C	 1.0452729769	-2.1196573641	-0.9195977408	 0.097947
O	 0.1072237726	-2.6949285599	-0.0392493593	-0.44278
C	 0.8329626603	-2.6750999338	-2.3295145439	-0.094775
O	-0.2005173369	-1.8615945718	-2.9140556667	-0.217203
C	-0.3539155236	-0.7039303861	-2.228048874	 0.470711
O	-1.1957919722	 0.1001689555	-2.5080271182	-0.34062
H	 0.6473868905	 2.058733915	-0.4075806797	 0.101254
H	-1.0127822751	 1.4707178166	-0.6225758688	 0.176629
H	-0.3792743464	 1.7515123262	 1.014681512	 0.120859
H	 1.0690044935	-0.0609552498	 0.7609066308	 0.231492
H	 1.5994033851	-0.1320363314	-1.605143926	 0.094992
H	 2.0729769706	-2.2928625411	-0.5694392075	 0.07542
H	-0.2817347181	-1.9513725652	 0.4508346108	 0.291124
H	 1.7371451104	-2.6013313835	-2.9446380732	 0.112216
H	 0.4821050677	-3.7077771417	-2.3070775173	 0.141299
