19
gdb 39089	3.49786	1.68194	1.45381	1.8846	79.13	-0.2293	0.0133	0.2427	944.2516	0.16272	-385.864938	-385.858584	-385.85764	-385.895176	27.65	
C	-0.0634358504	 1.5751300119	 0.2177987094	-0.267248
C	 1.4451136592	 1.3918940742	 0.0286563496	 0.06836
O	 1.8053906626	 0.5645483222	 1.1652846808	-0.288834
C	 0.7369773414	-0.4280876415	 1.1966503086	-0.167505
C	-0.0358901975	 0.020312762	-0.0332907452	 0.308568
C	-1.166909379	-0.6178570681	-0.8245858767	-0.402539
C	-0.8357784633	-0.1161954504	-2.2278180587	-0.043804
C	 0.3852195627	 0.4257119118	-2.3249608653	-0.144084
C	 1.1480957982	 0.2992065882	-1.034609032	-0.025443
H	-0.3967775834	 1.9252975742	 1.1975913149	 0.095175
H	-0.5546558826	 2.11914501	-0.5870679329	 0.108292
H	 2.1759807969	 2.1943841699	-0.0638199483	 0.073368
H	 1.1613497199	-1.434953819	 1.1108220737	 0.099209
H	 0.1877802159	-0.3491264139	 2.1424110118	 0.097439
H	-1.1574333024	-1.7163529134	-0.7839142329	 0.109652
H	-2.1600757085	-0.2970474234	-0.4883501409	 0.108877
H	-1.5400952596	-0.201988593	-3.0492734607	 0.094897
H	 0.8134626421	 0.8129371537	-3.2433176086	 0.09373
H	 1.9521057275	-0.4441631254	-1.1036672165	 0.081891
