19
gdb 109513	1.90532	1.44893	1.0529	2.5125	77.84	-0.2273	0.0291	0.2565	1230.6982	0.15714	-419.196659	-419.186509	-419.185565	-419.231586	36.871	
C	 0.0018174488	 1.2908107239	-0.4807222466	-0.321455
N	-0.1038689834	 0.1348383222	 0.4091491145	-0.289581
C	-1.3328960858	-0.5665045837	 0.3031295994	 0.012052
C	-1.6500130232	-1.614565336	-0.8226365998	-0.314357
C	-0.6279614248	-1.9492262389	-1.759685374	 0.293507
N	 0.2341622129	-2.2077760257	-2.4905218367	-0.358429
C	-1.4886592743	-1.9941124326	 0.6698509431	 0.341377
C	-0.3252871094	-2.8466883289	 1.1208329789	-0.467451
O	-2.6889781242	-2.2522487124	 1.3385579679	-0.453892
H	 0.9707104845	 1.7723704851	-0.326683606	 0.126515
H	-0.1007696169	 1.0416637785	-1.5477167227	 0.123693
H	-0.7774766935	 2.0159204632	-0.2227744648	 0.126263
H	 0.6900802712	-0.4805576569	 0.2806294534	 0.233919
H	-2.1977438634	 0.0481303119	 0.537039954	 0.123861
H	-2.6662191001	-1.6250311997	-1.2003904356	 0.129024
H	 0.5758381327	-2.6754549807	 0.5281111628	 0.143326
H	-0.1038783732	-2.6476526808	 2.173158461	 0.142474
H	-0.5768522258	-3.908402406	 1.0156644723	 0.123702
H	-2.916030262	-3.1794582824	 1.1992230388	 0.285451
