20
gdb 105957	3.0255	1.48578	1.17962	1.9311	81.9	-0.2042	0.0716	0.2758	1127.5445	0.169795	-365.902982	-365.894501	-365.893557	-365.935873	32.754	
C	-0.031879879	 1.5916352495	-0.0068163299	-0.382921
C	-0.01220994	 0.0587118373	-0.0005395833	-0.331418
C	-1.378852185	-0.5375546317	 0.1195947379	 0.315774
C	-2.6233863718	-0.1107697878	 0.8197876474	-0.115984
C	-3.1716171882	-1.5561848827	 0.7981748093	-0.175052
C	-3.074814734	-1.4998618493	-0.7071112215	-0.065083
N	-2.5633884149	-0.0622232309	-0.6891981588	-0.221885
C	-1.8936311792	-2.0139133397	 0.0757944543	 0.27432
C	-1.2062227034	-3.3388745987	 0.091682545	-0.526059
H	 0.9740457361	 1.9916160659	-0.1614838351	 0.111301
H	-0.6799562059	 1.961911198	-0.8055994644	 0.14472
H	-0.4071424302	 1.9861047247	 0.9430806401	 0.115598
H	 0.4526345717	-0.3089217798	-0.9254775832	 0.105057
H	 0.6116691742	-0.3084117848	 0.8254739831	 0.101585
H	-2.8584207614	 0.7652049865	 1.413648716	 0.091586
H	-3.8234307455	-2.1199488223	 1.450879421	 0.091233
H	-3.6753517693	-1.9335677089	-1.4979929119	 0.0944
H	-0.519791042	-3.4487908902	-0.7559773205	 0.124922
H	-0.6291399315	-3.4855604269	 1.0122047841	 0.122941
H	-1.9389012407	-4.1512650781	 0.0295130504	 0.124965
