20
gdb 84811	2.73914	1.47441	1.0604	2.0227	80.07	-0.2385	0.0215	0.26	1160.1139	0.172083	-403.120728	-403.112454	-403.11151	-403.153908	32.156	
O	-0.0915498465	 1.424639493	-0.0915845199	-0.433653
C	-0.0249303867	 0.0116236538	-0.0453164191	 0.0928
C	 0.7588185437	-0.5309511194	 1.1279389958	-0.100425
C	 0.1257873676	-1.5224687035	 1.7477132956	-0.05807
C	-1.2021104888	-1.8447103306	 1.1083996859	-0.269868
C	-1.4271290864	-0.6851435225	 0.103422567	-0.005117
N	-2.3677140441	 0.2861799082	 0.6627070778	-0.084759
C	-3.1862451933	 1.0263718241	-0.2935899525	-0.214514
C	-3.786599547	-0.0408621313	 0.5507608774	-0.22627
H	-0.6693051633	 1.6777229851	 0.6403541417	 0.285592
H	 0.4445744587	-0.2808885172	-0.9929899067	 0.087142
H	 1.7314709884	-0.1281238843	 1.3865175808	 0.096731
H	 0.5046921276	-2.0745405197	 2.6012193176	 0.093576
H	-1.1677728527	-2.8128308129	 0.5917625782	 0.105611
H	-2.0203450669	-1.9081173795	 1.8349399462	 0.11058
H	-1.7867969595	-1.0611583894	-0.867239323	 0.053673
H	-3.3564608245	 2.0740097575	-0.0636819909	 0.117813
H	-3.0464647826	 0.8121022736	-1.3510448973	 0.118499
H	-4.0549173339	-0.9744538181	 0.0591998422	 0.11246
H	-4.4005671495	 0.212362573	 1.410168863	 0.118201
