20
gdb 68402	2.23933	1.83751	1.55056	2.1681	73.43	-0.2264	0.0555	0.2819	981.7578	0.17115	-440.249842	-440.241465	-440.24052	-440.281823	34.21	
C	-0.0500867524	 1.5382584398	 0.0052735553	-0.459669
C	 0.0623289642	 0.0157137713	-0.0136423815	 0.396734
O	-1.2283713073	-0.5576626452	-0.2064663755	-0.491692
C	 1.0466938649	-0.5874995331	-1.0611499976	-0.212397
N	 2.0000075642	-1.3836079599	-0.2209296703	-0.127942
C	 2.2620541783	-0.3878165255	 0.889908678	-0.248413
C	 0.757202725	-0.5892813776	 1.2298808962	 0.32383
O	 0.1102812038	-0.2332771628	 2.4114736622	-0.500838
C	 1.0238165238	-2.0374052293	 0.7353045121	-0.246123
H	 0.9230317918	 2.0267915857	 0.1050684282	 0.112956
H	-0.5164690868	 1.8849143717	-0.9213216711	 0.123143
H	-0.6725601763	 1.860862128	 0.8467601245	 0.121062
H	-1.741798413	-0.358104328	 0.5858786776	 0.279171
H	 0.5209874457	-1.2408280305	-1.7599587808	 0.121194
H	 1.5972604716	 0.1715805867	-1.6220231348	 0.104112
H	 2.9412546236	-0.8201301512	 1.6301990318	 0.099601
H	 2.6298336401	 0.5892858682	 0.5672219884	 0.103674
H	 0.5021104638	-0.7185320863	 3.1442518715	 0.286158
H	 0.2062731758	-2.5898572033	 0.2709602079	 0.121708
H	 1.5652042692	-2.6581951988	 1.4549064581	 0.09373
