15
gdb 1932	3.67706	2.8532	2.21604	2.025	57.49	-0.2261	0.0729	0.2989	662.1094	0.123614	-345.608535	-345.601588	-345.600644	-345.638911	26.24	
C	-0.0528447522	 1.504814937	 0.0375291199	-0.486715
C	 0.0378662758	 0.0169673876	 0.0911343589	 0.415396
C	 1.211599677	-0.8388559763	-0.3296492416	-0.397981
C	 0.6125215893	-0.9927458412	 1.0546077398	 0.262957
O	 1.3127716699	-0.8006820189	 2.2281336299	-0.453102
C	-0.7368167363	-1.6954085934	 0.945729837	-0.136925
O	-1.1738232396	-0.7419108999	-0.0613559653	-0.319784
H	 0.9119356439	 1.9527213852	 0.2911859957	 0.129194
H	-0.33082099	 1.8404588643	-0.9677957606	 0.131237
H	-0.805296119	 1.8730070498	 0.7414619434	 0.131521
H	 1.0884163138	-1.6042406558	-1.0921854535	 0.110061
H	 2.1666153322	-0.3210365953	-0.3317175696	 0.114041
H	 2.032943326	-1.4399375945	 2.2618610108	 0.289426
H	-0.7619490489	-2.7299590932	 0.5824931657	 0.098451
H	-1.3361828119	-1.6006625854	 1.8585311795	 0.112222
