24
gdb 120752	3.35116	0.76427	0.68081	1.0802	91.87	-0.231	0.0875	0.3185	1783.4065	0.216623	-368.37209	-368.362006	-368.361062	-368.408037	37.323	
C	 0.0241098345	 1.5516922731	 0.1283823898	-0.37932
C	-0.0609872863	 0.0296890709	 0.271156929	-0.15442
C	-1.344770501	-0.5564387098	-0.331020531	-0.189663
C	-1.4217771436	-2.0640905503	-0.2090231849	-0.025083
C	-1.902600838	-2.7130691507	 1.0720510741	-0.314353
C	-2.7428492305	-2.7937274929	-0.1758852647	 0.036591
N	-3.9561599992	-2.0233672018	-0.2088809527	-0.059153
C	-4.7739749567	-2.1437717312	-1.4118006842	-0.221801
C	-5.2054662577	-2.7736782502	-0.1326827873	-0.220966
H	 0.9480781141	 1.9449689699	 0.5642117775	 0.107841
H	-0.0013513357	 1.8525706228	-0.9251012511	 0.110993
H	-0.8167762753	 2.0434008812	 0.630366347	 0.11321
H	 0.8113488369	-0.4327189506	-0.21014738	 0.088528
H	-0.0025885677	-0.2470431211	 1.3314571614	 0.096275
H	-2.2217632438	-0.1127777907	 0.1520236564	 0.110492
H	-1.40683721	-0.273515517	-1.3914421763	 0.086772
H	-0.6256721985	-2.5944297135	-0.7278474173	 0.077692
H	-1.413193417	-3.6111901508	 1.4324196022	 0.105444
H	-2.2699516608	-2.0514867139	 1.8496660112	 0.116997
H	-2.7807931553	-3.7616469876	-0.6855001173	 0.065198
H	-5.2395053547	-1.2270535232	-1.7626168281	 0.115479
H	-4.4240732614	-2.8078785701	-2.200549776	 0.109091
H	-5.1431533984	-3.858670112	-0.066604713	 0.109181
H	-5.9921114738	-2.3255249206	 0.4678411952	 0.114974
