19
gdb 39676	3.65909	1.14843	1.1013	3.0601	76.2	-0.2371	0.0087	0.2458	1173.7305	0.160193	-422.999571	-422.991516	-422.990572	-423.033176	29.626	
C	-0.0948303273	 1.4254723125	-0.2162329275	-0.078525
O	 1.2271860142	 1.6559533513	 0.3088405433	-0.27317
C	 1.3943949848	 0.261823531	 0.6368739952	-0.0865
C	 0.0393296078	-0.0995397126	-0.0154362827	-0.041783
C	-0.9963673849	-0.8069273618	 0.8563557588	 0.05339
O	-1.1201568686	-0.1504456876	 2.1219501687	-0.271638
C	-2.48487318	 0.1532234771	 2.4005222457	-0.115265
C	-3.2330943533	-0.2480880161	 1.1604050359	-0.096011
C	-2.3944664812	-0.800900833	 0.2921207116	-0.091413
H	-0.8690346623	 1.8984954907	 0.400142387	 0.10219
H	-0.1937932804	 1.7758163211	-1.2506144264	 0.094612
H	 2.2903147027	-0.1655937315	 0.1706935938	 0.094293
H	 1.4307655847	 0.0986591537	 1.7202339064	 0.114332
H	 0.1473689334	-0.6528252064	-0.9527667914	 0.07734
H	-0.6459599344	-1.8414643653	 1.0246798987	 0.082105
H	-2.8239988512	-0.4070424525	 3.2872688942	 0.106984
H	-2.5847618856	 1.2231519732	 2.6356607456	 0.112147
H	-4.2993651418	-0.1059921802	 1.0385162491	 0.10984
H	-2.6361625565	-1.2029238037	-0.6835622661	 0.10707
