15
gdb 25005	4.98984	1.3197	1.05058	1.4442	73.75	-0.1927	-0.0011	0.1916	1061.7729	0.115775	-416.879028	-416.872134	-416.871189	-416.910377	26.978	
O	-0.0257439292	-0.0015282747	 0.0045962907	-0.359628
C	-0.0306014813	 1.2042131026	 0.01074267	 0.410356
C	-1.2738484405	 2.1318608185	 0.0323918907	-0.325984
N	-0.6772037444	 3.4474514706	 0.0306253891	-0.021427
C	-1.0733380098	 4.7698499534	 0.0424207564	-0.134501
C	 0.0714000335	 5.5298375487	 0.0302548934	-0.13043
C	 1.2106630854	 4.6549893287	 0.010229359	-0.316232
C	 0.6888634689	 3.3888212552	 0.0114095571	 0.428478
N	 1.0642858712	 2.0436337668	-0.0003794637	-0.451267
H	-1.8941919263	 1.9378279243	-0.8486684641	 0.155012
H	-1.8696726007	 1.9290914449	 0.9282860938	 0.155
H	-2.114586644	 5.045223387	 0.0581667634	 0.120592
H	 0.1060654795	 6.6084012582	 0.0349936919	 0.099529
H	 2.2508363633	 4.9359462401	-0.0028392363	 0.09756
H	 2.0093005144	 1.6997655355	-0.0151710413	 0.272943
