17
gdb 84728	2.58778	1.73006	1.15515	1.6513	77.11	-0.2281	-0.0456	0.1825	1046.972	0.137384	-421.806614	-421.799031	-421.798087	-421.838996	29.58	
O	-0.1824178795	 1.4550408178	 0.1975518697	-0.427269
C	 0.0719429713	 0.0598383301	-0.0015193919	 0.027634
C	 0.9072561152	-0.4617967513	 1.1351042244	-0.101102
C	 0.9741377442	-1.6764047214	 1.6979007912	-0.074228
C	 0.2419109182	-2.892793893	 1.3842889052	-0.093773
C	-0.8608969784	-3.0449492474	 0.6357600454	-0.079692
C	-1.6713278012	-1.9913391483	-0.0039257788	 0.007021
O	-2.1177879101	-0.8664487056	 0.79310263	-0.261704
C	-1.2541662608	-0.6075187022	-0.3082075365	 0.017812
H	-0.7424761456	 1.5233865922	 0.9803901182	 0.29025
H	 0.6732508466	 0.0287432731	-0.9223840162	 0.108099
H	 1.5866476255	 0.3032486381	 1.5040199596	 0.10639
H	 1.719065936	-1.7966709826	 2.4816914292	 0.09315
H	 0.6580440961	-3.7947399734	 1.8272417944	 0.097921
H	-1.2470576708	-4.05140258	 0.500035707	 0.096261
H	-2.4665627078	-2.379936904	-0.6405457521	 0.093313
H	-1.750194089	-0.1234661019	-1.1538044587	 0.099917
