27
gdb 101808	3.69728	0.56524	0.54914	1.3438	93.28	-0.2624	0.0787	0.3411	2186.4163	0.249397	-390.703567	-390.691364	-390.69042	-390.741762	44.021	
C	 0.2209373222	 1.540637087	-0.027773397	-0.379356
C	 0.0382606133	 0.017085748	 0.0263333994	 0.043771
C	 0.7771484404	-0.5701339012	 1.236724313	-0.388754
C	-1.4445556334	-0.3993340337	 0.0462779262	-0.174486
C	-2.2327134985	-0.0309482033	-1.2178094623	-0.199015
C	-3.6543735899	-0.6180832313	-1.2739634448	 0.038086
C	-4.5698661686	-0.0823361835	-0.1650600126	-0.389353
C	-4.2700868756	-0.3628429996	-2.6512230138	-0.07966
O	-5.514076729	-1.0458435771	-2.72794297	-0.424189
H	 1.283150941	 1.8072683245	-0.0333904153	 0.107968
H	-0.2330776397	 1.9791477593	-0.9211028493	 0.112444
H	-0.2351746735	 2.0187594493	 0.84792714	 0.10951
H	 0.4905659119	-0.4089398119	-0.8816794397	 0.067941
H	 0.3633674387	-0.1807517314	 2.1749436746	 0.110316
H	 0.6930208512	-1.661712856	 1.2653531327	 0.108147
H	 1.8420711072	-0.3154782214	 1.2148028053	 0.107006
H	-1.4979389712	-1.4878372611	 0.1867511078	 0.08771
H	-1.9216927786	 0.0442342111	 0.9302261101	 0.094069
H	-2.2968968674	 1.0611565394	-1.31470076	 0.09342
H	-1.6698706846	-0.3824771791	-2.094200389	 0.086004
H	-3.581428278	-1.7095737164	-1.1635860829	 0.078779
H	-4.6166019288	 1.0137411632	-0.1962553472	 0.102649
H	-5.5839632277	-0.4668829788	-0.2940384781	 0.131908
H	-4.2181406547	-0.372831469	 0.828685434	 0.110518
H	-4.4042518536	 0.7224433339	-2.7981313603	 0.079598
H	-3.5801062642	-0.7167559533	-3.4341988617	 0.079702
H	-5.931977769	-0.8179024376	-3.5629456291	 0.285267
