19
gdb 93982	2.24754	1.38731	1.15019	2.7504	75.87	-0.2448	-0.0371	0.2076	1163.3714	0.15838	-423.075873	-423.06689	-423.065945	-423.11044	32.709	
C	 0.4173308496	 1.5867812958	 0.0663147736	-0.402152
C	 0.0364386852	 0.0977233645	-0.0531778318	-0.085468
C	 0.7150519692	-0.6225917525	-1.2327180449	-0.236972
C	 2.0802412352	-1.104801607	-0.6873211046	-0.235662
C	 1.821083626	-1.4467823114	 0.7829837127	-0.192723
C	 2.9486348364	-1.1383538785	 1.7506574829	 0.147214
O	 4.0169959878	-0.6895886271	 1.4246030394	-0.239579
C	 0.550130415	-0.6505469561	 1.1804528929	 0.386492
O	 0.0741354289	-0.6249242422	 2.2851128979	-0.323455
H	 1.5031761254	 1.7249907534	 0.1003270769	 0.131729
H	 0.0361123981	 2.1430506219	-0.7951278061	 0.124686
H	-0.0076907377	 2.0193743792	 0.9759233272	 0.139343
H	-1.0542577439	 0.0174693408	-0.0777344434	 0.100404
H	 0.1099038873	-1.4843802578	-1.5363817534	 0.103876
H	 0.8233366705	 0.0204226313	-2.1103076389	 0.106378
H	 2.4777435865	-1.9504349111	-1.2523992925	 0.110685
H	 2.8313492732	-0.3109429567	-0.7363668414	 0.132066
H	 1.5589482783	-2.5036501428	 0.9368100425	 0.126087
H	 2.698455909	-1.3411744237	 2.8124365009	 0.10705
