17
gdb 43177	2.24458	1.84766	1.78975	2.1562	67.21	-0.232	-0.0305	0.2016	902.2903	0.138126	-458.972019	-458.965018	-458.964074	-459.003296	27.659	
O	 0.0036693514	 0.0588924265	 0.0040184519	-0.318796
C	-0.0177102077	 1.257786348	-0.0064631164	 0.416382
C	-1.2015305359	 2.2198580222	 0.0262452982	-0.003879
C	-1.2543278358	 2.7788893044	 1.4642890234	-0.244833
C	 0.0676671799	 3.5086711663	 1.7481608361	-0.072906
O	 1.2153981539	 2.7675309013	 1.3248228517	-0.27983
C	 1.1444430157	 2.2630823765	-0.0148556994	-0.014623
C	 0.61601027	 3.2719540739	-1.028452992	-0.116628
O	-0.8248030122	 3.2475531678	-0.8974375172	-0.2882
H	-2.1431845084	 1.7743476107	-0.2979830902	 0.104043
H	-2.0940394861	 3.4736828587	 1.5727551531	 0.1152
H	-1.4042801347	 1.9507436533	 2.1662210569	 0.124405
H	 0.0494895046	 4.4920986042	 1.260649707	 0.112643
H	 0.2090628982	 3.6702714963	 2.8194869252	 0.120274
H	 2.1183928579	 1.8365803745	-0.2507253681	 0.108624
H	 0.9784921428	 4.28902877	-0.8468011631	 0.120943
H	 0.8960518666	 2.9742827053	-2.0470990073	 0.11718
