23
gdb 105474	2.14872	1.08715	0.84276	0.2071	95.31	-0.2363	0.0579	0.2942	1525.4974	0.204156	-351.132001	-351.121315	-351.120371	-351.168944	38.517	
C	 0.058418722	 1.4032428845	-0.1973343747	-0.389634
C	-0.1666778509	-0.09364154	 0.0254282511	-0.225366
C	-1.6504969976	-0.5143604871	 0.0991503336	 0.157714
C	-2.3550934169	-0.5019383377	-1.308288331	-0.248171
C	-2.0975790718	-2.025413642	-1.4354980138	-0.217677
C	-1.8006687971	-2.078694307	 0.0854248393	-0.254011
C	-2.3483162394	 0.1759756709	 1.1731609311	-0.004597
C	-2.9380999934	 0.7324122495	 2.0657254256	 0.096727
C	-3.6535256453	 1.403227316	 3.1426455196	-0.501835
H	 1.1276895491	 1.6333602412	-0.2356668546	 0.10892
H	-0.3866796486	 1.7425899835	-1.1387859206	 0.11373
H	-0.3879208833	 1.9882246113	 0.6118607594	 0.128818
H	 0.3124249906	-0.6648533723	-0.7799508396	 0.090909
H	 0.3208180985	-0.4038719483	 0.9578883867	 0.099651
H	-3.4169478875	-0.2646314717	-1.218445669	 0.107329
H	-1.9135452172	 0.1513400995	-2.0650985659	 0.09848
H	-2.9279347228	-2.6359345812	-1.7961493963	 0.098215
H	-1.2189586451	-2.2538120111	-2.0440992985	 0.102859
H	-0.9240082838	-2.6436432784	 0.4142548326	 0.096412
H	-2.66604862	-2.4010866974	 0.6679416505	 0.106121
H	-4.5534132981	 0.8484825011	 3.4316005056	 0.14472
H	-3.0276093356	 1.5039244839	 4.0365247352	 0.145288
H	-3.9684831657	 2.4102486726	 2.8463990236	 0.145399
