21
gdb 115992	1.77476	1.61214	0.88575	3.2599	87.46	-0.2462	-0.0528	0.1934	1343.1454	0.182494	-387.128962	-387.119715	-387.11877	-387.163328	34.146	
C	 0.8066786786	-0.4406205943	 1.3356884971	-0.384782
C	-0.0176201855	-0.0452960919	 0.1068725095	-0.194934
C	 0.692059366	-0.3556505394	-1.2217400392	-0.08384
C	 0.928943426	-1.8745811178	-1.4726197458	-0.223347
C	 0.706215002	-2.1069672756	-2.9889133955	-0.268454
C	-0.0676750744	-0.8907734113	-3.4103890248	-0.149058
C	-0.0729182417	 0.0642276121	-2.4678177477	 0.243983
C	-0.6664158279	 1.3844317791	-2.6986298669	 0.070289
O	-0.6039494373	 2.3262797633	-1.9373621409	-0.276187
H	 1.0173337725	-1.5152794126	 1.3590141494	 0.112567
H	 1.7680535396	 0.0855288114	 1.3502601644	 0.114334
H	 0.2775381197	-0.1883524193	 2.2597152631	 0.113435
H	-0.982642834	-0.5701123371	 0.122866898	 0.086757
H	-0.2416002903	 1.0241338108	 0.1384019838	 0.131572
H	 1.6534630243	 0.1798887017	-1.2151662855	 0.085114
H	 1.9124653963	-2.2110509698	-1.1376629164	 0.104939
H	 0.1842572566	-2.4461658273	-0.9072713243	 0.106848
H	 1.6536407641	-2.1538811915	-3.5453602323	 0.120474
H	 0.1821716497	-3.0437491219	-3.2096765831	 0.114778
H	-0.5238804998	-0.7856119664	-4.3904754564	 0.107621
H	-1.1942731546	 1.4776244278	-3.6752180965	 0.067893
