19
gdb 38188	4.26026	1.06313	0.95132	2.6371	75.	-0.2388	0.073	0.3118	1261.947	0.159609	-422.960989	-422.953057	-422.952113	-422.994424	29.71	
C	-0.0087998932	 1.3553033661	-0.2567695853	-0.059215
C	 1.4544786745	 1.5216114173	 0.1980855518	-0.301405
C	 1.2852395887	 0.0943376352	 0.7696806062	 0.151724
O	-0.0379157293	-0.0184059619	 0.1813586038	-0.300119
C	 2.2143900081	-0.9916533344	 0.280089254	-0.025916
C	 3.6764300367	-1.0452901405	 0.866812028	-0.288528
C	 3.361358733	-2.4533339993	 1.3904157013	 0.039461
O	 2.2348474064	-2.3327253011	 2.2666289093	-0.243751
C	 1.9912808963	-2.4052481945	 0.8568425402	 0.013266
H	-0.7341021401	 1.9726901423	 0.289134375	 0.100516
H	-0.2054487763	 1.4488715452	-1.3312498153	 0.102133
H	 2.1771523264	 1.5921814472	-0.6182831853	 0.105954
H	 1.6526500509	 2.3129845172	 0.9220879266	 0.110076
H	 1.2276059707	 0.0577689657	 1.8649435009	 0.088498
H	 2.2265804532	-1.0069763079	-0.8140881381	 0.077169
H	 4.4390169775	-1.0246629337	 0.0852993097	 0.108214
H	 3.9263759524	-0.3147303179	 1.6408652232	 0.110361
H	 4.030628204	-3.2887956796	 1.5591397698	 0.105024
H	 1.3285402199	-3.1875383657	 0.5072233043	 0.106538
