21
gdb 109711	2.0996	1.42128	1.06525	1.3893	79.58	-0.2109	0.0673	0.2782	1249.6494	0.180428	-424.17635	-424.166537	-424.165593	-424.211333	35.287	
C	 0.0219381789	 1.1840614261	 0.397342745	-0.233013
O	-0.1542703409	 0.0875679319	-0.4776625775	-0.232744
C	-1.350727036	-0.5936960204	-0.2571035913	 0.010315
C	-1.4790145936	-1.9854977234	-0.8462124211	-0.15097
C	-0.3579362776	-2.6132412289	-1.6458101387	-0.405689
C	-1.3616790445	-1.798502984	 0.6393979104	 0.406773
C	-0.2845864525	-2.2883019968	 1.5979303893	-0.351487
C	-1.4763532698	-2.5129257167	 2.5555791708	-0.075159
O	-2.4263645805	-2.0886414277	 1.5488045114	-0.308585
H	 0.9859002172	 1.6380800054	 0.1555850711	 0.126786
H	-0.770403222	 1.9358971547	 0.2624875591	 0.110029
H	 0.0235817312	 0.8743450893	 1.4520496553	 0.107789
H	-2.2450820501	 0.0332719117	-0.2608615765	 0.088291
H	-2.4849648724	-2.219823794	-1.1874632533	 0.097964
H	 0.6178975306	-2.2842286147	-1.281361162	 0.131076
H	-0.3993310185	-3.7062825398	-1.5873268106	 0.114663
H	-0.4244572803	-2.3307659206	-2.7015383048	 0.121867
H	 0.2323560507	-3.1978525682	 1.2846093349	 0.114943
H	 0.4531408744	-1.5473738181	 1.9091001123	 0.116189
H	-1.6546756241	-3.5471244641	 2.8692310466	 0.107165
H	-1.5011741102	-1.8599728915	 3.4360471997	 0.103798
