17
gdb 132358	1.88919	1.73648	0.91504	3.2184	79.09	-0.2464	-0.022	0.2244	1240.4712	0.135186	-426.059415	-426.050787	-426.049843	-426.094015	31.15	
C	-0.089623383	 1.5295859714	-0.0082228941	-0.493086
C	-0.0178230706	 0.0249313293	-0.0169353738	 0.347096
C	 0.0218651601	-0.6932989857	-1.2056739448	-0.372614
C	 0.0877231117	-2.0814835592	-1.1132181747	 0.343822
F	 0.126260303	-2.7808108549	-2.2472830263	-0.077039
N	 0.115922718	-2.7776650799	-0.0055689165	-0.378605
C	 0.077836969	-2.0901782917	 1.152548322	 0.334898
C	 0.1114585668	-2.9144259782	 2.4112440333	-0.465385
C	 0.0114274813	-0.7018991535	 1.1809998651	-0.253907
H	 0.7694926196	 1.9592910089	 0.5182648709	 0.140806
H	-0.1053788856	 1.9368357778	-1.021830289	 0.130469
H	-0.9894637126	 1.8754223134	 0.511954447	 0.14078
H	 0.0032306145	-0.2109417905	-2.1753103178	 0.108517
H	 1.0206632067	-3.5233884263	 2.442083494	 0.142778
H	 0.0774327297	-2.288520776	 3.3058623477	 0.118243
H	-0.7357587774	-3.6073494864	 2.4340161091	 0.142779
H	-0.017705211	-0.1825800485	 2.133111138	 0.09045
