18
gdb 104834	2.1403	1.53667	1.21333	4.39	68.87	-0.254	0.0192	0.2732	1107.6899	0.146342	-476.218081	-476.208639	-476.207695	-476.252492	33.92	
C	 1.0397369845	-0.61069397	 1.2727721022	-0.257743
O	 0.1944415897	-0.3244411182	 0.1711894436	-0.284633
C	 0.7436773461	-0.5141829369	-1.0982694961	 0.232999
C	 2.1204922598	 0.119931161	-1.3168934006	-0.122886
O	 2.1012379751	 1.4924113104	-0.9978957399	-0.422022
C	 0.5402311176	-1.9407382409	-1.7315186631	-0.227291
N	-0.3698851533	-1.2992870578	-2.6894998935	-0.331092
C	-0.2424870755	-0.0294491297	-2.199791423	 0.413539
O	-0.6605245876	 1.0489610178	-2.5380224181	-0.377564
H	 1.4619927204	-1.6250266856	 1.2179720213	 0.103125
H	 1.853873363	 0.1181810195	 1.3570308923	 0.138623
H	 0.4117493027	-0.5442874212	 2.1637639351	 0.134138
H	 2.8784334941	-0.3465105284	-0.6785448787	 0.110256
H	 2.4215088758	-0.06440595	-2.3615272044	 0.096347
H	 1.3320759233	 1.879474788	-1.4378780112	 0.30383
H	 1.4236325968	-2.3964845625	-2.1906831658	 0.11269
H	 0.0526083907	-2.6482814399	-1.0559058578	 0.122057
H	-0.810753503	-1.6455420757	-3.5289217124	 0.255626
