19
gdb 114496	2.86743	1.3431	1.05271	3.2299	76.76	-0.2118	0.0179	0.2298	1182.4657	0.159895	-419.196706	-419.188275	-419.18733	-419.230092	31.662	
C	-0.0110266346	 1.6498961093	 0.12220526	-0.380872
C	 0.1731330179	 0.1545103317	-0.1277678052	-0.130667
N	 0.5965788563	-0.5323914806	 1.0824614758	-0.065052
C	-0.3409192904	-0.7356858984	 2.2098809682	-0.194099
C	 0.1118013454	-2.2170164364	 2.3090408699	-0.00075
N	-0.6843138352	-3.1479311153	 1.5111468835	-0.321574
C	-0.0379536423	-2.8815116169	 0.3121260989	 0.413314
O	-0.2734423626	-3.1993861527	-0.8221500901	-0.360382
C	 0.9806340652	-1.9548746604	 1.0403834108	-0.164038
H	 0.9172321741	 2.0987033541	 0.4874001291	 0.123722
H	-0.3087336725	 2.1589879816	-0.7993158174	 0.117202
H	-0.7915353309	 1.8333731291	 0.8687369259	 0.116364
H	-0.7564276634	-0.2722164118	-0.545213059	 0.094337
H	 0.9522092912	-0.007177959	-0.8819096098	 0.11338
H	-0.1095458171	-0.1059905763	 3.0757403905	 0.110512
H	-1.4077057149	-0.6275366089	 1.9652239866	 0.092711
H	 0.4918715509	-2.6035170916	 3.252930408	 0.095872
H	-1.6466188887	-3.4318831957	 1.6472400733	 0.244147
H	 2.0456800316	-2.1633732717	 0.9235245312	 0.095874
