18
gdb 79765	2.70039	2.00056	1.866	1.0165	72.4	-0.2313	0.059	0.2903	851.375	0.15147	-401.926588	-401.920176	-401.919232	-401.957002	27.152	
O	 0.0993238405	 1.3957388589	 0.3023818897	-0.433236
C	 0.0328304928	 0.0003791282	 0.0183544795	 0.097929
C	-1.4091212057	-0.4451231435	-0.1102925492	-0.078138
C	-2.1446930699	-0.0154723204	-1.3651553774	-0.068318
C	-1.3704904969	 0.8119163363	-2.3772863866	-0.242423
C	-0.0833130695	 0.0234988087	-2.5491062415	-0.038969
C	 0.6385373824	-0.4009937716	-1.3233092015	-0.086368
N	-0.232170122	-1.3681195266	-2.036370242	-0.128555
C	-1.5047947818	-1.381144916	-1.2882513612	-0.036673
H	 1.0276662502	 1.6385393835	 0.378177141	 0.283204
H	 0.5225508503	-0.5681233036	 0.8240921151	 0.06935
H	-1.9870689788	-0.606907167	 0.792008815	 0.089002
H	-3.2200765347	 0.1012356415	-1.2952155394	 0.087338
H	-1.9144196266	 0.8572526694	-3.3272633745	 0.101562
H	-1.1839954766	 1.8335960915	-2.0359684864	 0.124266
H	 0.4712028494	 0.1242101171	-3.477864322	 0.088107
H	 1.7063170382	-0.6030793612	-1.3677843672	 0.080194
H	-2.0463132713	-2.3179041252	-1.2862761313	 0.091727
