18
gdb 83572	2.67163	1.74803	1.68082	1.887	69.89	-0.2527	0.0158	0.2685	922.0662	0.150712	-439.108687	-439.101559	-439.100614	-439.139953	28.311	
C	-0.0256214685	 1.5419624142	 0.0036741143	-0.428517
C	 0.027545139	 0.014798321	 0.0132017191	-0.04338
C	 0.9547042057	-0.5662999272	-1.0588611547	 0.223219
O	 2.2530111785	-0.3284203179	-0.6070641023	-0.261082
C	 2.23147548	-0.3067469064	 0.8424031406	-0.086538
C	 0.7741226319	-0.6233960326	 1.204187773	-0.025508
N	 0.5666471576	-2.0825048035	 1.1845114295	-0.271814
C	 0.5447055272	-2.6059781167	 0.0300031593	 0.118233
O	 0.7077735824	-1.9930911844	-1.1694812348	-0.244392
H	 0.9733310276	 1.9864389586	-0.0063102531	 0.135119
H	-0.5567694498	 1.904022839	-0.8826609237	 0.122635
H	-0.5565109267	 1.9165383158	 0.8844211648	 0.12352
H	-0.9804543639	-0.3990124592	-0.0740783549	 0.094973
H	 0.8535574141	-0.1838907096	-2.0744401748	 0.099498
H	 2.9232044035	-1.0620959277	 1.2230969173	 0.124707
H	 2.5504660235	 0.6828102928	 1.1894310346	 0.106516
H	 0.4843956273	-0.2315520506	 2.1807951026	 0.082995
H	 0.3774797606	-3.6726608454	-0.1030294267	 0.129818
