17
gdb 97867	5.61602	0.47049	0.43763	1.2415	99.67	-0.2415	-0.0135	0.228	2432.3612	0.132653	-347.476672	-347.46623	-347.465286	-347.514111	36.132	
C	-0.0366563464	 1.6287606687	-0.0125428132	-0.365345
C	-0.0036211502	 0.0894150074	-0.0078855633	-0.313014
C	 0.6894337241	-0.4637620297	 1.1510926403	 0.097113
C	 1.2648371817	-0.8994609482	 2.1137599141	 0.056901
C	 1.963785377	-1.4376335811	 3.2831099896	-0.531501
C	 2.0070258661	-2.8986235441	 3.3156303927	 0.433604
C	 2.0485579008	-4.1062891689	 3.3523772077	-0.282726
C	 2.0941827289	-5.465882754	 3.392606412	 0.296822
C	 2.1353357549	-6.6720324432	 3.4295069018	-0.548428
H	 0.9765919119	 2.0394507681	-0.0211164509	 0.12835
H	-0.5648948999	 1.995199396	-0.8976378916	 0.116245
H	-0.547441535	 2.0094619917	 0.8760387319	 0.128355
H	-1.0293360706	-0.2997302638	-0.0363688794	 0.131962
H	 0.4802185456	-0.2700204868	-0.9249784699	 0.131948
H	 2.9918021153	-1.0485420526	 3.3142848251	 0.164382
H	 1.4850082308	-1.0733100852	 4.2035602737	 0.164386
H	 2.171249625	-7.7325411541	 3.4611046593	 0.190948
