18
gdb 47776	2.67878	1.40851	0.97891	4.1602	78.42	-0.2402	0.0237	0.2638	1194.197	0.14896	-401.962105	-401.953658	-401.952714	-401.995388	32.122	
O	-0.0969569897	-0.0923435775	 0.1639981949	-0.361606
C	-0.0703583129	 1.1182496299	 0.0859935859	 0.411782
N	-1.2093124423	 1.8548858415	-0.096737213	-0.321719
C	-1.3696055572	 3.2990189554	 0.0243482676	-0.148555
C	-0.0670386334	 4.0194603306	-0.3117442699	-0.214437
C	 1.0881835954	 3.398624204	 0.4725151467	-0.209465
C	 1.2584541667	 1.9122820641	 0.0849733154	-0.302737
C	 2.2693552442	 1.2519778426	 0.9008134937	 0.336853
C	 3.1252007091	 0.7701389508	 1.591946601	-0.438381
H	-2.0444946624	 1.2862054021	-0.0757060088	 0.247308
H	-2.1712202779	 3.6170379283	-0.6509902442	 0.113588
H	-1.6836050962	 3.5673821346	 1.0450163943	 0.110422
H	 0.1299335432	 3.94368272	-1.3882879349	 0.110061
H	-0.1727814274	 5.0824799408	-0.0747692782	 0.106474
H	 2.0269120719	 3.9279989636	 0.2864796489	 0.115041
H	 0.8927195774	 3.4691146685	 1.5491487203	 0.116558
H	 1.5875168394	 1.8765569355	-0.9650207721	 0.134756
H	 3.8708217623	 0.3146289851	 2.1950934023	 0.194055
