20
gdb 97388	4.89932	0.8172	0.79454	2.9076	84.91	-0.2467	0.025	0.2716	1533.4438	0.170516	-403.095576	-403.086892	-403.085948	-403.130013	32.381	
C	-0.0104984658	 1.3464228565	-0.0447887705	-0.314739
N	 0.0200158251	-0.0995117414	-0.1085875944	-0.212283
C	-1.0806434224	-0.7022444904	-0.0400168277	 0.109194
O	-1.1261345005	-2.0533321351	-0.0932732779	-0.255376
C	-2.3875428238	-2.6437718044	-0.0104861762	 0.435502
C	-3.5912200445	-2.5027744112	-0.9907428191	-0.274512
C	-4.0044513382	-3.5450372392	 0.0895479841	-0.053669
C	-2.5836441198	-4.1706737561	-0.0586117358	-0.270483
C	-3.4065198887	-2.5945906991	 1.1680560168	-0.274506
H	 0.5948214226	 1.6896723302	 0.8019615792	 0.128096
H	 0.444968997	 1.7638143096	-0.9500870868	 0.128095
H	-1.0227608418	 1.7712040122	 0.0597291779	 0.094183
H	-2.0609652923	-0.215771328	 0.0643985131	 0.076652
H	-4.1318580606	-1.5527388868	-0.9841521164	 0.094015
H	-3.4388324798	-2.8792026691	-2.0049974152	 0.102044
H	-4.9497761816	-4.077080635	 0.1477734926	 0.089858
H	-2.358472132	-4.6605341007	-1.0087348537	 0.100934
H	-2.2041492821	-4.7372141987	 0.7948603403	 0.100939
H	-3.087029781	-3.0540712207	 2.1063711723	 0.102044
H	-3.9335620898	-1.6513005528	 1.3333574273	 0.094011
