15
gdb 27117	3.16159	1.30338	0.94787	2.6907	73.43	-0.2017	0.0016	0.2033	1178.6961	0.11454	-450.145228	-450.136843	-450.135898	-450.180162	29.827	
N	-0.1643053482	 1.4193275239	-0.1218374479	-0.612299
C	-0.0094447872	 0.0183308453	-0.0311631021	 0.09518
C	-1.0218301502	-0.873267096	 0.1589729237	 0.436694
N	-2.3669244668	-0.649183371	 0.3632661461	-0.399356
C	-3.4299119303	-1.4761520692	 0.0578153341	 0.065935
N	-3.2976931413	-2.6630583746	-0.3765241307	-0.436617
O	-0.4960822361	-2.1203308426	 0.2188786975	-0.15127
C	 0.843237007	-1.9211057162	 0.057809926	 0.058266
N	 1.1898916794	-0.6872386243	-0.0883984409	-0.287991
H	 0.4980680701	 1.8888081374	 0.4892053842	 0.247402
H	 0.0314231372	 1.7499159023	-1.0633487371	 0.246715
H	-2.5692582595	 0.3275964865	 0.5163212826	 0.267288
H	-4.3798574084	-0.9679928793	 0.2630936333	 0.094193
H	-4.2123569441	-3.0884094693	-0.5089506967	 0.225645
H	 1.4576072686	-2.8065437529	 0.0564193581	 0.150213
