9
gdb 4225	5.22568	1.78066	1.75149	3.1808	36.99	-0.3469	0.0078	0.3547	683.7411	0.05143	-469.758395	-469.752045	-469.751101	-469.789339	21.47	
F	 0.0085381474	 0.0653505798	-0.0560057722	-0.063868
C	-0.0206902396	 1.3976771673	 0.0121619399	 0.29473
F	 1.2338391504	 1.8468995614	-0.0583169429	-0.063884
F	-0.689824084	 1.8565072535	-1.0516381966	-0.068611
C	-0.711900687	 1.8747347246	 1.2900985229	-0.459089
C	-0.034365693	 1.4104386539	 2.4952085531	 0.271944
N	 0.4938998882	 1.0473949167	 3.4548135613	-0.283218
H	-0.7389265265	 2.9680336497	 1.2730185331	 0.185984
H	-1.7425250359	 1.5088011732	 1.2749022313	 0.186012
