17
gdb 70767	4.00747	1.3465	1.1594	4.8252	78.65	-0.2528	0.0035	0.2563	1067.0847	0.136014	-380.794128	-380.786451	-380.785507	-380.826007	29.869	
C	-0.0516016899	 1.4279993449	-0.0123202384	-0.518725
C	 0.0814943961	-0.0625065691	-0.0296304569	 0.342425
C	 0.578572093	-0.9711811785	-1.1631767447	-0.342166
C	 0.0709238725	-1.9145326518	-0.0696892328	 0.262318
C	-0.0478306087	-3.349569207	-0.0860130709	 0.172333
N	-0.1191553257	-4.5037846462	-0.0976329214	-0.346234
C	 0.5884618354	-1.0202081857	 1.1045083893	-0.134181
C	-0.8089026248	-1.0365873981	 1.7089669182	-0.203646
N	-1.1564810018	-0.9987665195	 0.2212265272	-0.196869
H	 0.9289026195	 1.9006121159	-0.1317040928	 0.132347
H	-0.6948573948	 1.7614064299	-0.8325391584	 0.14148
H	-0.4863475365	 1.7820221535	 0.9275871882	 0.132221
H	-0.0076018044	-0.9585135135	-2.085384356	 0.125075
H	 1.6534267539	-0.9835877402	-1.356881914	 0.114739
H	 1.5792877777	-1.058460816	 1.5679304574	 0.083548
H	-1.1441931799	-1.9500291287	 2.2078519027	 0.124489
H	-1.1476841618	-0.1529331799	 2.2561270933	 0.110847
