17
gdb 62320	3.86566	1.30056	1.1332	3.9863	77.07	-0.2461	0.011	0.2571	1079.7371	0.136083	-380.781811	-380.77401	-380.773066	-380.813917	30.355	
C	-0.0357716892	 1.6014489095	 0.0463948494	-0.49678
C	 0.0795877099	 0.073926162	-0.0518065476	 0.128328
C	-0.9985858744	-0.579312807	 0.6656498091	 0.237776
N	-1.8632632915	-1.0831565685	 1.2468317415	-0.34157
C	 0.4752525564	-0.7635079614	-1.2605873968	-0.105534
C	 1.7743047066	-0.3053486961	-1.9505558239	-0.063831
C	 2.5549715256	 0.7793707202	-1.3086650122	-0.251766
N	 2.5896430244	-0.5630244858	-0.705307518	-0.145063
C	 1.2945751244	-0.8885055824	-0.0073459889	-0.03448
H	 0.155757947	 2.0819462686	-0.9136167222	 0.144396
H	-1.0525373257	 1.8656860675	 0.3463934822	 0.146142
H	 0.6445531267	 2.0148790048	 0.7963145177	 0.145663
H	-0.2056939624	-1.4692923324	-1.7170993946	 0.121674
H	 2.0777409939	-0.7398377186	-2.8972659323	 0.116901
H	 3.4999483684	 1.0125895307	-1.7929199887	 0.132152
H	 2.1141766575	 1.6120607425	-0.785457219	 0.13279
H	 1.3286473025	-1.6650428338	 0.7454321242	 0.133205
