14
gdb 15102	9.15765	0.76929	0.73009	5.5179	76.33	-0.2605	-0.045	0.2155	1460.0342	0.106979	-341.532451	-341.524655	-341.523711	-341.565443	27.233	
N	 0.0958518265	-3.6473456546	-0.2516401328	-0.335586
C	 0.062883756	-2.4938527064	-0.1183263737	 0.21116
C	 0.0213954032	-1.1378797184	 0.0360518137	 0.050231
C	-0.0154895395	 0.0611613702	 0.1731385325	 0.118781
C	-0.0713662592	 1.5102965721	 0.3258302718	-0.333308
N	 1.2628277771	 2.1050067261	 0.2762231901	-0.058975
C	 1.764477063	 2.4371276312	-1.0556147101	-0.21251
C	 1.3037612071	 3.5084195259	-0.1303832941	-0.220151
H	-0.7525526058	 1.916939629	-0.4454102611	 0.127032
H	-0.5189797457	 1.7503103257	 1.2987781877	 0.155074
H	 2.8233340785	 2.2579898988	-1.2123455851	 0.13137
H	 1.1311577086	 2.2114797429	-1.9117758408	 0.120301
H	 0.362005693	 4.0005607421	-0.3680700349	 0.116351
H	 2.0186122874	 4.1265762252	 0.4036595668	 0.13023
