18
gdb 83186	2.86498	1.40999	1.20379	2.983	71.62	-0.2393	0.0219	0.2612	1071.2256	0.150065	-439.111776	-439.104057	-439.103113	-439.143999	30.527	
O	 0.0504125799	 1.3945505713	 0.1137095818	-0.420722
C	 0.0116174811	 0.0065132562	 0.0583803204	 0.105083
C	-1.3213002548	-0.7180650514	 0.0486482953	-0.084428
C	-2.6195615796	 0.0731146307	 0.0094491757	-0.253765
C	-3.2564301168	-0.001272678	-1.3891081352	-0.309335
C	-2.3055372887	 0.4419837049	-2.4929697161	 0.386795
O	-2.661933001	 1.0047119345	-3.5069840237	-0.361126
N	-0.9688631543	 0.1827059446	-2.2463022608	-0.309565
C	-0.4723170581	-0.6715371834	-1.2068271711	-0.084576
H	-0.1930824615	 1.7228355683	-0.7626893887	 0.288917
H	 0.8350547752	-0.4489099164	 0.6000518763	 0.105671
H	-1.3535317546	-1.6777271393	 0.5536695049	 0.095178
H	-3.3169255814	-0.307467295	 0.7606414621	 0.109157
H	-2.4152243154	 1.1177068478	 0.2680421768	 0.12412
H	-3.5562110928	-1.0347566815	-1.6071953957	 0.126782
H	-4.1530615287	 0.6164204811	-1.4741734938	 0.130629
H	-0.357298144	 0.414933187	-3.0176137825	 0.249762
H	 0.0201201356	-1.5787922913	-1.5465468058	 0.101422
