18
gdb 79424	2.73737	1.58563	1.1731	2.3246	77.27	-0.2421	-0.0429	0.1992	1078.6249	0.146575	-401.857596	-401.849572	-401.848627	-401.89046	30.355	
C	-0.2276544109	 1.5026293065	-0.1430417245	-0.424463
C	-0.0277040609	 0.0010871836	-0.1279467277	 0.057315
C	 0.9746559751	-0.6813213444	-1.0618204377	-0.120864
C	 2.1457270723	-0.2433829844	-0.1256301844	-0.012236
C	 2.7055141457	-1.6563225297	 0.0472013645	-0.31574
C	 1.1787063566	-1.8052243987	-0.0063494741	 0.290838
C	 0.3339900097	-3.0098351954	 0.2513277352	 0.036218
O	-0.6265227248	-3.3150673254	-0.4111948204	-0.2463
N	 0.9972876202	-0.5243330158	 0.890397412	-0.205302
H	 0.7128941717	 2.0470203435	-0.2690611656	 0.116746
H	-0.8936114049	 1.7879517135	-0.9643342086	 0.123681
H	-0.6882279301	 1.8338626185	 0.7933234314	 0.130906
H	-0.9867413138	-0.5168067623	-0.0220329771	 0.091589
H	 0.981599709	-0.7891113893	-2.1507069972	 0.074927
H	 2.6776207473	 0.7073697504	-0.112404288	 0.092192
H	 3.2683982351	-2.0770856873	-0.7892071253	 0.108896
H	 3.1766950039	-1.8703312425	 1.0100307592	 0.115587
H	 0.6546239388	-3.6178137809	 1.1268363782	 0.086013
