20
gdb 112167	2.3855	1.24866	1.03757	1.2663	76.38	-0.2625	0.026	0.2885	1253.1389	0.169319	-440.289449	-440.279611	-440.278667	-440.324087	36.181	
C	-0.2312839348	 1.5492671493	 0.1357996194	-0.446975
C	-0.1152394069	 0.0331825976	-0.0298323603	 0.11886
C	-1.4313501729	-0.6656128604	 0.323738977	-0.439842
C	 0.5633462765	-0.5207752845	-1.32087576	 0.084844
C	 1.1581222878	 0.4006600442	-2.3668335731	-0.082675
O	 1.9656827774	-0.3283956227	-3.2722402595	-0.41829
O	 1.6424067227	-1.1024544171	-0.5002522522	-0.294668
C	 1.0906207993	-0.5912530603	 0.6572780147	 0.428262
N	 1.4822117577	-0.6518537788	 1.8460916227	-0.550837
H	 0.7071387876	 2.0667055605	-0.0767248966	 0.126411
H	-1.0073499113	 1.9559703044	-0.5211956487	 0.119209
H	-0.5062452968	 1.7809393415	 1.1687465828	 0.140862
H	-2.2408973582	-0.3123084819	-0.3240908552	 0.11861
H	-1.3520074452	-1.7510812858	 0.2125731989	 0.126067
H	-1.7037927003	-0.4525757602	 1.3613198317	 0.139203
H	 0.010599605	-1.3284822313	-1.8106971391	 0.096626
H	 0.3571267576	 0.8599226966	-2.9564184519	 0.117388
H	 1.7269520866	 1.2074682789	-1.8828108342	 0.095821
H	 2.6403499813	-0.7724387474	-2.7453788564	 0.294359
H	 2.3564879068	-1.1731926326	 1.9308150101	 0.226764
