16
gdb 35465	3.3065	1.49751	1.39181	2.8999	71.59	-0.2656	-0.0081	0.2576	954.9971	0.127214	-400.76063	-400.753912	-400.752967	-400.79181	26.796	
N	-0.0584161871	-1.1822694835	-0.1855976974	-0.333335
C	-0.0445465068	-0.031362196	-0.0739887466	 0.266803
C	-0.0092526273	 1.4179940067	 0.0517838041	-0.147502
C	-0.5538075914	 1.9833263462	 1.406469072	-0.244656
C	 0.678280147	 2.8295002014	 1.87334701	 0.016452
O	 1.1721202119	 3.3135620705	 0.6160431217	-0.238282
C	 1.452309369	 2.0384508497	 0.0491564354	 0.006796
C	 2.2416040645	 1.3443413007	 1.1496868281	-0.07892
C	 1.7618413658	 1.8446298831	 2.2883201297	-0.072663
H	-0.5641290409	 1.8507705211	-0.7842797363	 0.134538
H	-1.4186334306	 2.6249539157	 1.2295741047	 0.122298
H	-0.831435186	 1.2029112493	 2.1155622593	 0.129413
H	 0.4520518026	 3.6563452319	 2.5442272486	 0.093836
H	 1.9037141362	 2.1306711396	-0.9366039414	 0.100621
H	 2.9535082561	 0.5455268526	 1.0005519008	 0.127628
H	 1.9863875671	 1.5533250209	 3.3049213873	 0.116972
