19
gdb 111471	2.3714	1.68319	1.14039	3.7109	75.54	-0.2205	0.0599	0.2803	1112.0355	0.160733	-419.242235	-419.233748	-419.232804	-419.275865	32.049	
C	-0.1736702196	 1.5981427726	 0.0175803715	-0.380164
C	-0.1271576135	 0.0956740247	-0.2793233022	-0.156083
N	-1.3853226988	-0.5874903425	-0.0601786698	-0.089557
C	-2.003818084	-0.7747326885	 1.2167931146	-0.008201
C	-3.2487575998	 0.0356628769	 1.5319144655	-0.325817
C	-3.3641113887	-1.3462003861	 0.9099907351	-0.010815
N	-3.3827042447	-1.4736191261	-0.5160870859	-0.362112
C	-2.2528054305	-0.8929189261	-1.0961382386	 0.433748
O	-2.0703616871	-0.6940973042	-2.2787067043	-0.421717
H	 0.8091829494	 2.0478506938	-0.1556292612	 0.117635
H	-0.8976621581	 2.0968860033	-0.6334716311	 0.131791
H	-0.4543502849	 1.7921352783	 1.0576249433	 0.119717
H	 0.1256973588	-0.0742140767	-1.3288375621	 0.143662
H	 0.6473680323	-0.3845466188	 0.3331453412	 0.099298
H	-1.3723392847	-1.1552385027	 2.012696917	 0.104939
H	-3.5292975732	 0.1198936337	 2.5765193432	 0.117884
H	-3.4670902831	 0.9019188149	 0.9171151138	 0.122336
H	-3.7883635949	-2.1645838743	 1.4802685462	 0.10945
H	-4.2375418349	-1.4375273823	-1.0474763663	 0.254004
