19
gdb 32948	4.06111	0.86977	0.73847	1.0462	82.1	-0.1773	0.0468	0.2241	1550.5075	0.159796	-419.226234	-419.216677	-419.215733	-419.261429	34.328	
C	-0.3737120831	 1.2754395446	-0.9223311069	-0.220439
O	-0.3170131299	-0.1308000409	-0.9420086632	-0.241505
C	 0.8482521688	-0.6397047613	-0.30528649	-0.195138
C	 0.8705809918	-2.1199273539	-0.4364290321	 0.30206
C	 1.1440421025	-3.1164604188	 0.4695511014	-0.234123
C	 1.071285922	-4.363944977	-0.2175751088	-0.209841
C	 0.7555153738	-4.0878290633	-1.5308475662	 0.280868
N	 0.5856528177	-4.9064966987	-2.6664942513	-0.611294
N	 0.6589514259	-2.7264800468	-1.6572639518	-0.304948
H	-0.4146855583	 1.6691595674	 0.1056663406	 0.105135
H	 0.4961022465	 1.7285808864	-1.4252357327	 0.10168
H	-1.2827711798	 1.5745953452	-1.4498979443	 0.125618
H	 1.7372042603	-0.1729812774	-0.7700996494	 0.089187
H	 0.8683134617	-0.3692781507	 0.7622059977	 0.100445
H	 1.3686107195	-2.9674008709	 1.5152107098	 0.086179
H	 1.2122842126	-5.3481658131	 0.202741985	 0.078922
H	-0.3880608421	-4.9717037445	-2.95137238	 0.242181
H	 0.9078781866	-5.8465644216	-2.4716951569	 0.245596
H	 0.4035395535	-2.2403191547	-2.499764661	 0.259416
