20
gdb 98443	2.85992	1.0714	1.05305	3.7545	75.85	-0.2486	0.0255	0.2741	1287.5079	0.169572	-440.295315	-440.285133	-440.284189	-440.331832	35.395	
C	-0.175838018	 1.4556114433	-0.0037551812	-0.336387
N	-0.1848675979	 0.0243997351	-0.2395447701	-0.314316
C	 0.7890004009	-0.6124548213	-0.9527604856	 0.352036
O	 1.7363183481	-0.0322532501	-1.4548043103	-0.381947
C	 0.6344655967	-2.1294557204	-1.0435634646	 0.169575
C	 1.1968140293	-2.7860187044	 0.2203381104	-0.457039
C	-0.7367398173	-2.687048565	-1.5187920943	-0.122424
O	-0.1408779803	-3.2899915404	-2.6769088402	-0.272282
C	 1.1556318467	-2.7276294011	-2.3693739808	-0.107644
H	 0.7053368728	 1.8588644074	-0.503782754	 0.173907
H	-1.0717381761	 1.9330012947	-0.4155762003	 0.127408
H	-0.1166221739	 1.6843718693	 1.0662448358	 0.126225
H	-0.9415085351	-0.5204303452	 0.1393631159	 0.248035
H	 0.6461607452	-2.4738761413	 1.1144002176	 0.113279
H	 1.1323282972	-3.8760166501	 0.1442740537	 0.128161
H	 2.2473643339	-2.5117979905	 0.3585952194	 0.140106
H	-1.2024790058	-3.4297798273	-0.8572929401	 0.096656
H	-1.4853016559	-1.9291160804	-1.7881447408	 0.094599
H	 1.4779919699	-1.9831569613	-3.1035348311	 0.123636
H	 1.9243866695	-3.502804461	-2.2707944291	 0.098418
