21
gdb 107125	3.45618	1.11157	1.07173	1.9232	82.65	-0.221	0.0705	0.2915	1272.4309	0.180537	-387.02788	-387.018853	-387.017909	-387.061338	35.016	
C	 0.0382174644	 1.5546965503	 0.2645349068	-0.371484
C	 0.0048024917	 0.0583058405	-0.0783241575	-0.293929
C	-1.3868893419	-0.5096134425	-0.0784227818	 0.347872
C	-2.1218912455	-0.9984315086	 1.1415519261	-0.33482
C	-1.8628951866	-1.9559538835	 0.003783001	-0.218107
C	-2.8197133432	-1.6874134675	-1.2076676192	 0.426008
C	-3.243198753	-2.6829975911	-2.2344654373	-0.503248
O	-3.7248346966	-0.6256246543	-0.8517572169	-0.284523
C	-2.3885504892	-0.2940662153	-1.2667895491	-0.121953
H	 1.0607752978	 1.9439618738	 0.2384046553	 0.109889
H	-0.5587798964	 2.1374017963	-0.445236621	 0.117379
H	-0.3700416257	 1.7349352435	 1.2639573076	 0.121725
H	 0.4695308336	-0.1024943359	-1.0611509032	 0.094609
H	 0.6176534709	-0.4988790892	 0.6409826514	 0.098524
H	-1.4920449684	-1.1561079564	 2.0124907522	 0.105629
H	-3.1306703129	-0.6679604828	 1.3541406392	 0.131989
H	-1.2637014901	-2.8523833407	 0.1053274598	 0.087492
H	-3.9284683616	-3.4209728695	-1.8014407233	 0.131238
H	-3.7537511573	-2.1839180909	-3.0622886213	 0.133515
H	-2.376292929	-3.223308515	-2.6292389332	 0.125283
H	-2.278229751	 0.3984941089	-2.0945278356	 0.096911
