10
gdb 919	6.13696	3.00966	2.01934	3.1519	51.37	-0.2666	-0.0812	0.1854	572.3677	0.068918	-355.516778	-355.511553	-355.510609	-355.54606	18.636	
N	-0.0316183977	 1.3159835314	 0.0096251341	-0.504001
C	-0.0525318994	 0.0581596484	 0.0035395867	 0.444734
O	 1.1871808521	-0.6664313941	-0.0075963878	-0.205627
C	 1.1448942429	-1.9966511815	-0.0142904454	 0.164528
N	 0.0889085371	-2.7219568556	-0.0117468728	-0.280153
C	-1.0887540571	-1.9818316554	-0.0012403409	 0.079282
N	-1.2057962651	-0.7002746408	 0.0062182795	-0.238978
H	 0.9253112738	 1.6661102028	 0.0057393076	 0.236498
H	 2.1403161738	-2.4351606292	-0.0222484742	 0.15918
H	-2.0008249503	-2.5743587561	 0.0015300431	 0.144537
