17
gdb 11977	2.59323	2.36657	1.77499	1.9837	68.69	-0.2389	-0.0213	0.2176	832.7487	0.140797	-363.841656	-363.833764	-363.83282	-363.87342	29.721	
C	-0.1436716605	 1.6131198867	-0.0193099106	-0.446121
C	 0.0281901321	 0.1012279228	-0.0105299575	 0.176837
C	-1.3033097008	-0.6079146829	 0.2464819392	-0.41664
N	 0.6736083182	-0.5265401142	-1.2450061961	-0.136998
C	 2.0396821064	-0.0291645146	-1.3232105042	-0.246804
C	 1.7630953666	-1.1413739141	-0.3670379436	-0.159418
C	 1.1235377483	-0.5700533708	 0.8628566432	 0.390264
O	 1.2544541851	-0.7436933543	 2.0405374698	-0.32098
H	 0.7912668444	 2.1548885898	-0.1776071354	 0.120845
H	-0.8476448788	 1.9073664712	-0.8051975982	 0.130339
H	-0.5522128773	 1.9396506687	 0.9417028178	 0.138854
H	-2.0409354457	-0.3002208339	-0.5008154485	 0.125679
H	-1.1891741255	-1.6935040874	 0.1852999792	 0.127954
H	-1.677367074	-0.3542924945	 1.2421681689	 0.132714
H	 2.5503461648	-0.304074474	-2.2414781622	 0.135875
H	 2.2945087443	 0.957287642	-0.9477437567	 0.125797
H	 2.1501119625	-2.1444193508	-0.5055940852	 0.121803
