14
gdb 11091	7.12772	1.05912	1.03752	1.9867	66.84	-0.3227	-0.0033	0.3194	1086.3669	0.108433	-341.603965	-341.596632	-341.595688	-341.636169	26.106	
N	-0.069257857	-1.2079284446	-0.0587749332	-0.314734
C	-0.0099573913	-0.0543505966	-0.0073811147	 0.273325
C	 0.0781697797	 1.3961888653	 0.0734768916	-0.167948
C	-0.1289028975	 1.9576156479	 1.5195621246	-0.237581
C	 1.4210089444	 2.0573160398	 1.6710154592	-0.126226
C	 1.5471938113	 1.9337665007	 0.1205590118	-0.237576
C	 1.9691982777	 3.2417247097	 2.3075700141	 0.266007
N	 2.3924505608	 4.1991957502	 2.7981843939	-0.314095
H	-0.5585916245	 1.8350171456	-0.6968830546	 0.13765
H	-0.5974023047	 2.9422482404	 1.4902358719	 0.141765
H	-0.6531800767	 1.3224023907	 2.2325530916	 0.145711
H	 1.8191930919	 1.1660777318	 2.1632586344	 0.146225
H	 2.331613092	 1.279932476	-0.2587898001	 0.145712
H	 1.6185445939	 2.9107179731	-0.3593671705	 0.141765
