14
gdb 9469	3.14004	1.73899	1.56708	3.5949	60.21	-0.248	-0.0608	0.1872	859.6294	0.104742	-419.687744	-419.680128	-419.679184	-419.719822	27.694	
O	 0.2615561373	 1.5031326425	 0.2350374765	-0.466971
C	-0.0085197781	 0.1720670994	-0.0028493425	 0.244474
C	-1.5077492672	-0.2700232395	-0.1764042525	-0.296012
C	-1.1506132562	-1.101054492	-1.4399642617	-0.342959
C	 0.1936796744	-0.3648109153	-1.4779208221	 0.337481
O	 1.0022705877	-0.1216908639	-2.3174417339	-0.269992
C	 0.7226597739	-0.7094484279	 0.9848760893	 0.116259
O	 1.4904180887	-0.2394378268	 1.7894557785	-0.271432
H	 0.9282604037	 1.5208542081	 0.9424414774	 0.298555
H	-1.9557452871	-0.807549006	 0.6610220738	 0.119198
H	-2.1089642234	 0.6100211571	-0.4083385052	 0.143852
H	-1.0166679902	-2.1695995457	-1.2388435653	 0.138272
H	-1.7809901019	-0.991744762	-2.3245218081	 0.14527
H	 0.5188855383	-1.797277968	 0.9351579357	 0.104006
