17
gdb 66837	2.72445	1.92146	1.44971	1.8452	70.66	-0.2376	0.0694	0.3069	928.0746	0.135509	-421.737372	-421.730104	-421.72916	-421.768642	29.371	
C	-0.0860237648	 1.4092261185	-0.0115588716	-0.52424
C	-0.0138536953	-0.0846223024	 0.0606713949	 0.288094
C	 0.2023434964	-1.0000247072	-1.1781761992	-0.248217
C	 0.9627721943	-2.1473174028	-0.4676470286	 0.0853
O	 1.8806223696	-1.5482069411	 0.4781255996	-0.294941
C	 0.700192436	-0.9963408236	 1.103340302	 0.025609
C	-0.208239686	-2.1530128212	 0.5729416844	-0.193924
C	-1.0237390125	-1.1349001311	-0.2965996882	 0.313409
O	-2.3633637247	-0.9739129347	-0.5365054288	-0.453192
H	 0.9122055703	 1.8496762228	-0.1118668064	 0.127519
H	-0.6847689023	 1.7303283435	-0.8697317611	 0.128099
H	-0.5515920432	 1.8284225696	 0.8873387413	 0.123499
H	 0.3196221208	-0.5834660557	-2.1698910282	 0.092855
H	 1.3754324179	-2.9920855796	-1.0173737899	 0.079692
H	 0.8437232139	-0.6749787515	 2.1344007689	 0.07883
H	-0.5508460311	-3.009799163	 1.1475592301	 0.081412
H	-2.6467584494	-1.6471233804	-1.1656615792	 0.290195
