20
gdb 26745	3.0034	1.45077	1.00401	1.8157	89.79	-0.1831	0.0557	0.2387	1217.5996	0.171294	-366.028878	-366.019731	-366.018786	-366.063441	33.11	
C	-0.1992655223	 1.5277706525	 0.0881037275	-0.497203
C	 0.0754121851	 0.0540621798	-0.0003919297	 0.229826
C	 0.1136997147	-0.707331789	-1.1680932616	 0.139202
C	-0.0658850806	-0.3392157273	-2.603280513	-0.498622
N	 0.3112345757	-1.998095654	-0.7417391363	-0.024857
C	 0.7372872679	-3.3854426912	-0.9858356204	-0.173492
C	 0.8324996975	-3.534798945	 0.5821075845	-0.372367
C	 0.4421036544	-2.0656492934	 0.6123799041	 0.338176
C	 0.3026931307	-0.8038270511	 1.1335650841	-0.442506
H	 0.4758691164	 2.0141506183	 0.8010694597	 0.119536
H	-0.0666462202	 2.0257774528	-0.8771165929	 0.114179
H	-1.2228836381	 1.7399723114	 0.4229231723	 0.12081
H	 0.7429313942	-0.7342884616	-3.2307728808	 0.119714
H	-1.0096276325	-0.7166070815	-3.0184080182	 0.124865
H	-0.0702733641	 0.7467653668	-2.7216866666	 0.132443
H	-0.0119640786	-4.0047915653	-1.4880811275	 0.11927
H	 1.6940010705	-3.4706101222	-1.5105380921	 0.122571
H	 0.1176620413	-4.2397721586	 1.015885908	 0.119267
H	 1.8334677654	-3.7761512724	 0.9499740642	 0.121336
H	 0.3470778226	-0.4912863489	 2.1656257248	 0.087852
