20
gdb 72905	2.80022	1.77739	1.43192	1.6346	76.8	-0.2261	0.0768	0.3029	986.3143	0.172775	-403.11491	-403.107423	-403.106479	-403.146352	30.598	
C	-0.0905138139	 1.513067831	 0.1239666297	-0.454489
C	 0.023259756	 0.0019585842	 0.0326959421	 0.411707
C	-1.3137545075	-0.7316759492	-0.1736497721	-0.221982
N	-1.3016793107	-1.9942767068	 0.5884923857	-0.104636
C	-0.2525688951	-2.9295166848	 0.1651216912	-0.253195
C	-0.0215489696	-2.0471706196	 1.3413854564	-0.039577
C	 0.7818820654	-0.7706344498	 1.1511779935	-0.109277
C	 1.9320404196	-0.820442853	 0.128732885	-0.106255
O	 1.0558809472	-0.3810481693	-0.9323260984	-0.326904
H	 0.8887228092	 1.9676623125	 0.2999076745	 0.120813
H	-0.4866997798	 1.9201042453	-0.8123612698	 0.129573
H	-0.7625441787	 1.8067393371	 0.9368784467	 0.119258
H	-2.1366620127	-0.1196734223	 0.21168535	 0.103243
H	-1.4980028712	-0.9159889399	-1.236909637	 0.11868
H	-0.4913272137	-3.9784772931	 0.3205523832	 0.110688
H	 0.2818874371	-2.7118436065	-0.7552200162	 0.134244
H	-0.0776725572	-2.4681139642	 2.3410872369	 0.08946
H	 0.9747820104	-0.2555827317	 2.0934308449	 0.073693
H	 2.7324094932	-0.0925752827	 0.3151807289	 0.099555
H	 2.3749151217	-1.8008026173	-0.0740391852	 0.105399
