15
gdb 14716	9.96934	0.62099	0.59107	5.647	77.1	-0.2774	-0.0501	0.2273	1793.5582	0.116946	-362.638332	-362.629363	-362.628419	-362.672991	29.896	
C	 0.0027232458	 1.5152184859	-0.028325667	-0.388458
C	 0.0192647538	-0.0023572343	-0.0285901471	-0.024373
O	 0.6872028591	-0.4395145803	-1.2036226709	-0.240233
C	 0.7529684714	-1.8421586605	-1.2927018392	-0.215005
C	 1.4468009552	-2.2272392611	-2.5143744064	 0.020787
C	 2.0180916884	-2.5744182792	-3.5191778065	 0.124155
C	 2.6648980864	-2.9639397085	-4.6569222279	 0.208516
N	 3.2146102438	-3.2974459201	-5.6242370893	-0.332912
H	 1.0222722057	 1.9097132922	-0.0380534978	 0.134734
H	-0.5213973773	 1.8929239385	-0.9102823088	 0.134747
H	-0.5064781116	 1.8866843806	 0.8656932769	 0.121658
H	 0.5384366781	-0.3889516195	 0.8640880482	 0.094513
H	-1.0068190005	-0.4056017202	-0.0080869551	 0.094516
H	 1.2851539276	-2.2741339415	-0.426668703	 0.133683
H	-0.2560962259	-2.2911494417	-1.2967056161	 0.133671
