19
gdb 113213	3.06936	1.03976	0.8882	3.0035	71.89	-0.2606	0.0681	0.3287	1348.0803	0.156697	-460.113668	-460.104109	-460.103165	-460.148599	34.55	
C	-0.1056823464	 1.8763387627	 0.2096008003	-0.477562
C	-0.1597949731	 0.3654256326	 0.1349731345	 0.330974
O	 1.0752173804	-0.3095000748	-0.1287477416	-0.304672
C	 0.4327789789	-0.5331520358	 1.1454737049	-0.007395
C	 1.2216189859	-0.0993525643	 2.3548254183	-0.094402
O	 2.3082627537	-0.9805933011	 2.5877863587	-0.415613
C	-1.3301882282	-0.152731358	-0.6668618505	 0.017485
C	-1.1310441584	-0.8183643006	-1.9621215284	-0.174554
O	-1.4694813201	-1.5613146313	-0.7866531486	-0.230354
H	 0.8069335596	 2.2197494264	 0.6969694935	 0.136781
H	-0.1296955404	 2.3016156916	-0.799719942	 0.13147
H	-0.9670356032	 2.2706023283	 0.7592202505	 0.128272
H	-0.0045437928	-1.5277542841	 1.2244515174	 0.118093
H	 1.5662359437	 0.9379935148	 2.2478339914	 0.090214
H	 0.5872991328	-0.1523126882	 3.2466687405	 0.114698
H	 2.8300795269	-0.9975374356	 1.7773965841	 0.293288
H	-2.2656059434	 0.3827182306	-0.4948984583	 0.093715
H	-1.9086044043	-0.7676317869	-2.7223765579	 0.115501
H	-0.1146663817	-0.9671856464	-2.3173010766	 0.13406
