17
gdb 12844	2.9352	2.53222	1.85074	1.4936	67.23	-0.2425	0.0217	0.2642	787.3121	0.143518	-363.874895	-363.867983	-363.867038	-363.905922	26.791	
C	-0.0845741025	 1.5260748963	 0.0793372725	-0.457851
C	 0.0379821866	 0.0149256505	 0.0166167761	 0.313312
C	-1.2437458623	-0.8294932481	 0.2904875677	-0.259981
C	-0.4673351533	-1.6596452193	 1.3610761164	-0.241464
C	 0.7774673538	-0.7680051463	 1.1530774538	 0.048162
O	 1.8783990256	-1.4263337544	 0.4888447474	-0.231504
C	 1.6948735725	-1.1592562229	-0.8309882077	 0.103682
N	 0.7432116197	-0.4120422127	-1.2093960912	-0.297856
H	 0.9010371429	 1.9991887318	 0.0235531536	 0.12153
H	-0.6819844325	 1.8917535281	-0.7616226758	 0.131498
H	-0.5685055663	 1.8423945599	 1.0093384085	 0.109316
H	-2.0724980721	-0.2445972844	 0.6980250297	 0.101444
H	-1.5992931946	-1.3863280727	-0.5782556059	 0.112038
H	-0.8862130433	-1.6235767655	 2.3692527057	 0.107443
H	-0.2867694689	-2.7038746656	 1.0978045863	 0.115259
H	 1.1728926965	-0.2373386039	 2.0206579817	 0.086626
H	 2.4224917182	-1.6295729407	-1.4837318687	 0.138346
