17
gdb 50307	2.20695	1.74516	1.28084	2.5267	72.61	-0.2483	-0.0418	0.2066	1024.1319	0.136262	-421.857239	-421.849434	-421.84849	-421.890014	29.346	
O	-0.8561317459	 1.8574352338	-0.6774287448	-0.241323
C	-0.0838333729	 1.5648813234	 0.1997265461	 0.143521
C	 1.4068075393	 1.8525384099	 0.1742542883	-0.210459
C	 1.9444592298	 2.520321822	-1.1022246445	-0.253598
C	 2.2420008364	 3.9756668374	-0.7276823464	-0.039339
C	 1.109247537	 4.7586580215	-0.1601421172	-0.292514
C	 2.1390145663	 4.1309004578	 0.7818488373	-0.139882
C	 1.7587079574	 2.8122392491	 1.3548355885	 0.393263
O	 1.7513184155	 2.4888158831	 2.514607367	-0.327932
H	-0.4237598101	 1.0619100108	 1.1296144599	 0.107917
H	 1.9037495264	 0.9051941495	 0.4113814167	 0.128191
H	 2.8647672615	 2.0245628353	-1.4227994723	 0.110733
H	 1.2196211281	 2.4513152958	-1.9178589316	 0.133947
H	 3.0204279381	 4.4982612824	-1.270872239	 0.099272
H	 1.1515558848	 5.8400777413	-0.222095185	 0.129854
H	 0.1069676014	 4.3469990031	-0.2027654474	 0.147047
H	 2.7704408468	 4.7802369937	 1.3741975644	 0.111301
