21
gdb 85852	2.13674	1.42797	1.30429	2.6564	74.06	-0.2353	0.0589	0.2942	1135.8902	0.178383	-461.347996	-461.337558	-461.336614	-461.382047	40.191	
C	-0.8775496581	 1.3303386821	 0.0590907673	-0.466337
C	-0.0371168425	 0.0659549777	-0.035032468	 0.384295
O	-0.8218106679	-1.0213678314	-0.5055403948	-0.470814
C	 1.329944702	 0.1163276501	-0.7871019782	-0.341984
C	 1.8837961543	-0.8814914688	 0.2624573322	 0.098023
O	 3.2277389499	-0.8265783183	 0.6730738926	-0.436351
C	 0.7383042764	-0.4457376538	 1.2312672256	 0.3408
C	 1.175063467	 0.6629478457	 2.1899309303	-0.471489
O	 0.0479632658	-1.4552886359	 1.9290145674	-0.473581
H	-0.3067241296	 2.1821220138	 0.4380347729	 0.112584
H	-1.2574242115	 1.6059484867	-0.9327388409	 0.104982
H	-1.7372743366	 1.1627250514	 0.7148100654	 0.134852
H	-1.1537084133	-0.7757555578	-1.3760164286	 0.274104
H	 1.3198370872	-0.2012542582	-1.8320550978	 0.098468
H	 1.8110138044	 1.0979757482	-0.7155082228	 0.088084
H	 1.6991739359	-1.9106234558	-0.0511740332	 0.111124
H	 3.454371696	 0.0919450898	 0.8510829871	 0.278782
H	 1.6431922408	 1.5124051119	 1.6816131614	 0.107354
H	 0.315676002	 1.0361579592	 2.7526777919	 0.13211
H	 1.9072625005	 0.2630307322	 2.9012367795	 0.116928
H	 0.6253918373	-1.7725166586	 2.6320700008	 0.278065
