17
gdb 33871	4.02948	1.31658	1.17285	4.9225	76.17	-0.2574	0.0118	0.2692	1057.4033	0.137989	-380.843454	-380.836291	-380.835347	-380.874898	28.643	
N	 0.0550550747	-1.0953000767	 0.0086233146	-0.339979
C	 0.023703435	 0.0604898842	-0.0144619153	 0.231103
C	-0.0617974025	 1.5013083512	-0.0466861901	 0.173734
C	 0.4225741937	 2.2417281224	-1.2520805309	-0.272653
N	 1.2163305584	 2.2664635577	-0.028593378	-0.122396
C	 1.0354724039	 3.3885613661	 0.8926114344	 0.00661
C	 0.0600691916	 4.5082737262	 0.6225994212	-0.30547
C	-0.3443594099	 3.3554941991	 1.5081440939	-0.02844
C	-1.0860779103	 2.1687771749	 0.88874768	-0.324294
H	 0.8725126602	 1.6849340716	-2.0687842934	 0.140007
H	-0.1374993542	 3.1186835302	-1.5596762361	 0.125538
H	 1.9223584122	 3.5951557696	 1.4790282337	 0.110729
H	 0.2731222445	 5.4531938177	 1.1112662794	 0.123137
H	-0.3975028151	 4.6242842791	-0.352892961	 0.119335
H	-0.4953540199	 3.5430717016	 2.564829354	 0.10161
H	-1.9958250755	 2.4572131648	 0.3530454963	 0.12532
H	-1.3792174868	 1.4617363803	 1.6682541671	 0.13611
