19
gdb 50427	3.10541	1.28101	1.01803	2.7068	81.19	-0.2357	-0.0198	0.2159	1180.831	0.160514	-385.901519	-385.893569	-385.892624	-385.934471	30.693	
O	-0.2141355469	 0.0633105467	 0.1660237222	-0.248221
C	-0.0421517488	 1.2494711987	 0.0577991203	 0.157333
C	 1.3067192304	 1.9416537344	 0.0350561618	-0.079736
C	 1.4852521326	 2.6942396268	-1.3080790478	-0.29711
C	 2.6285969223	 3.6749103621	-1.2765904199	-0.089842
C	 3.0274102037	 4.2778843634	-0.1550734423	-0.036472
C	 2.3789650631	 4.0364929932	 1.1551629577	-0.086787
C	 0.8776322252	 4.2497273719	 1.2919215386	-0.292019
C	 1.4354734051	 2.8529238251	 1.249721868	-0.039562
H	-0.9064176015	 1.9510064289	-0.0307089503	 0.069805
H	 2.0706556933	 1.1604558007	 0.1102602932	 0.096389
H	 1.6338739896	 1.9601045681	-2.1073319076	 0.119233
H	 0.5498468674	 3.2154186603	-1.5616592452	 0.114094
H	 3.12306081	 3.8906596094	-2.219066604	 0.092356
H	 3.8544786734	 4.9817541471	-0.1783671266	 0.090453
H	 2.9776215691	 4.2612763824	 2.0315430631	 0.090015
H	 0.4976906355	 4.6137625469	 2.2402633362	 0.117202
H	 0.3602651353	 4.6430748549	 0.4242086853	 0.122358
H	 1.4404268411	 2.3187255692	 2.1953363875	 0.100511
