16
gdb 124238	2.66109	1.51399	0.9767	3.5125	74.08	-0.264	-0.0656	0.1984	1158.9994	0.123758	-434.097458	-434.088595	-434.08765	-434.132666	30.829	
C	 0.0068622467	 1.5530632071	-0.0545210748	-0.51148
C	 0.0054159086	 0.0380995585	 0.0729628312	 0.326591
O	 0.0057355642	-0.5084504429	 1.1579192611	-0.303731
C	 0.0024033642	-0.7439585854	-1.1741657868	 0.182327
C	-0.0029439821	-2.1120850067	-1.4189065133	 0.234344
C	-0.0003922793	-3.2538816779	-0.4600605519	-0.500354
N	-0.0094786835	-2.302355894	-2.7670375121	-0.243182
N	-0.0081097325	-1.1437508986	-3.3736943285	-0.102829
N	 0.000436417	-0.2032157801	-2.4294511389	-0.259927
H	 0.8921794104	 1.8984446489	-0.6011295025	 0.142433
H	-0.8791203835	 1.9005318599	-0.598706752	 0.142523
H	 0.0087424455	 1.9914659626	 0.9434752273	 0.157283
H	-0.8302359249	-3.9330995491	-0.677758996	 0.14497
H	 0.9240789367	-3.8327918906	-0.5583963395	 0.145005
H	-0.0831068233	-2.8913085954	 0.563718694	 0.162914
H	 0.001604136	 0.7663816835	-2.7044761074	 0.283113
