17
gdb 18915	4.03351	2.30389	2.07905	1.7095	70.05	-0.2193	0.0809	0.3002	739.0891	0.144101	-326.67308	-326.666971	-326.666027	-326.70285	25.255	
C	-0.0050174332	 1.5247870741	 0.0883015963	-0.518043
C	-0.0003927291	 0.0310732102	-0.0201576476	 0.350065
C	 1.115499912	-0.8435149812	-0.5474041131	-0.13904
C	 0.5210834608	-1.9327299173	-1.4193842636	-0.171636
N	-0.7825258928	-2.1553024448	-0.777797083	-0.119302
C	-0.6512483288	-1.9189325525	 0.6716691252	-0.057172
C	 0.6129953276	-1.0368566053	 0.8693932538	-0.148061
C	-1.2549410991	-0.8825906468	-0.2075166704	-0.122656
H	 0.9905627549	 1.9045307934	 0.3395906699	 0.120527
H	-0.3102333793	 1.9919816609	-0.8561040403	 0.12048
H	-0.6961484214	 1.8687242337	 0.8663608404	 0.12146
H	 2.0980524475	-0.4202123737	-0.7197549443	 0.086656
H	 0.3716479567	-1.6194794908	-2.4579617265	 0.105089
H	 1.1023760459	-2.8605109003	-1.4077927766	 0.105488
H	-1.0878891035	-2.6181763951	 1.3728702582	 0.091771
H	 1.2107220968	-0.9364331039	 1.7642676158	 0.08616
H	-2.278911405	-0.5649974306	-0.3629473242	 0.088216
