19
gdb 55103	4.39991	0.93832	0.83366	4.5671	78.67	-0.2368	0.0296	0.2664	1398.0892	0.158562	-419.193584	-419.18434	-419.183395	-419.228862	32.953	
C	-0.3047742453	 1.467128894	-0.0549110537	-0.489875
C	-0.2005288279	-0.0491571758	 0.0013083904	 0.373677
O	-0.3524055971	-0.6977733867	 1.0215701766	-0.366361
N	 0.0703604213	-0.6522317133	-1.1881260504	-0.077911
C	 0.4925590646	-0.1699762601	-2.5064228758	-0.262832
C	 0.7649989154	-1.6417823462	-2.8706640983	 0.320936
C	 0.5316101588	-2.314639452	-4.1617639431	-0.299051
N	 1.8964473276	-2.1773419492	-3.6044715773	-0.350015
C	 0.382956663	-2.0620669005	-1.4423777895	-0.226639
H	 0.6663344187	 1.9146413515	-0.294551602	 0.135307
H	-1.0148326266	 1.7920518881	-0.8222267164	 0.132544
H	-0.630697074	 1.8280742573	 0.9200504127	 0.148528
H	-0.291726059	 0.3342270051	-3.0844601438	 0.117077
H	 1.386967014	 0.4685600383	-2.4876597116	 0.112227
H	 0.1512563862	-3.3322747205	-4.1875011293	 0.128582
H	 0.2477869384	-1.7015400121	-5.0140007803	 0.116377
H	 2.401736299	-1.4337161333	-4.0810047898	 0.233802
H	 1.2140222174	-2.4454552028	-0.8409730952	 0.130451
H	-0.4752528043	-2.7345250917	-1.3436932232	 0.123177
