17
gdb 32122	3.75634	1.19649	0.91354	2.0512	82.06	-0.2021	-0.0003	0.2018	1253.8333	0.138681	-414.26594	-414.257346	-414.256402	-414.299412	31.79	
C	-0.0131284217	 1.4431400674	 0.0100885811	-0.308838
N	-0.0923345127	 0.0060080134	-0.1297696365	-0.346849
C	-1.2551449428	-0.6949605451	-0.0496297048	 0.459942
N	-2.3985624238	 0.0065131064	 0.0081610311	-0.348489
C	-3.5097001996	-0.7359452005	 0.0527798283	 0.015674
C	-3.5195422091	-2.1160491978	 0.0458420999	-0.218485
C	-2.2562869208	-2.7394942532	-0.0040437017	 0.390374
N	-2.1304342161	-4.1048289781	-0.0521099847	-0.569139
N	-1.1265284462	-2.0355760161	-0.0445303985	-0.400355
H	 0.9944632076	 1.7661175522	-0.2624214819	 0.116396
H	-0.7324819605	 1.9260579481	-0.6547948264	 0.149593
H	-0.227008999	 1.7821983796	 1.0328159232	 0.121737
H	 0.7437135028	-0.5476453827	-0.053561069	 0.246702
H	-4.4468894193	-0.1839185299	 0.0990660242	 0.102575
H	-4.4401190248	-2.6849802279	 0.077933104	 0.081721
H	-2.8930503027	-4.6613912163	 0.2965752881	 0.253338
H	-1.2054079513	-4.4563594894	 0.1406037637	 0.254103
