23
gdb 110292	2.12512	1.31244	0.96097	1.3682	86.03	-0.2443	0.0772	0.3215	1345.7549	0.20506	-388.257762	-388.247924	-388.246979	-388.292143	37.31	
C	-0.0878424582	 1.4839828454	 0.2705408978	-0.415828
C	 0.0366951041	 0.0173309633	 0.6284896279	-0.021154
C	 1.1711178823	-0.8927032158	 0.2363062838	-0.072287
C	 0.9112635724	-0.5547395313	 1.711395024	-0.056574
C	 2.2700828427	 0.1557375234	 1.8058212238	 0.012808
C	 3.2083089378	-0.4580617342	 2.8306931417	-0.106487
O	 2.6881586463	-0.1317407571	 4.1148519055	-0.427014
C	 2.5397774679	-0.1890473534	 0.2935854368	-0.014342
C	 3.723139095	-1.0992383203	-0.0279863952	-0.411722
H	 0.8683918802	 2.0111439275	 0.3133221658	 0.119259
H	-0.4839007216	 1.6039788619	-0.7440799588	 0.112439
H	-0.7729090988	 1.9933930901	 0.9571907751	 0.116384
H	-0.9178300094	-0.5057371014	 0.5812919931	 0.080696
H	 0.9963344065	-1.8242077313	-0.2925201041	 0.072334
H	 0.5073112848	-1.1784661366	 2.5004214489	 0.082601
H	 2.2107188599	 1.2279769633	 2.0262240747	 0.071975
H	 3.2631715103	-1.5492026667	 2.700389898	 0.083502
H	 4.2259836677	-0.0559743513	 2.7023002311	 0.082557
H	 3.2350186753	-0.5637786784	 4.7773086057	 0.284589
H	 2.6098728555	 0.7011315593	-0.3431642898	 0.06529
H	 3.6836404941	-2.0401158416	 0.5300047184	 0.115945
H	 3.7181192642	-1.3540291049	-1.0935905931	 0.112565
H	 4.6802228709	-0.6139020699	 0.1898048986	 0.112465
