20
gdb 57918	3.19007	1.095	0.88951	4.2083	76.91	-0.2433	0.0207	0.264	1343.3077	0.170043	-440.284414	-440.274462	-440.273518	-440.320426	34.254	
C	-0.0145958092	 1.4513078502	 0.1007759672	-0.344372
N	-0.018933836	 0.0009261527	 0.0023663601	-0.090238
C	-0.1114826178	-0.7075643484	 1.262775064	-0.336724
C	 0.0426737683	-0.5846950655	-1.2370232782	 0.414649
O	 0.1038789106	 0.0739305903	-2.2635223731	-0.378604
C	 0.030062621	-2.1089594524	-1.2849418419	-0.19146
C	-1.3147397131	-2.8370882956	-1.0093008148	-0.073208
O	-1.3181306438	-3.4235035382	-2.3176415917	-0.271263
C	-0.1067755827	-2.7238070509	-2.6902263334	-0.084836
H	 0.8361669844	 1.79359441	 0.7034516041	 0.120814
H	 0.0603149821	 1.8627260577	-0.9040116384	 0.172038
H	-0.9362219318	 1.8099518255	 0.5766748683	 0.121231
H	-1.0385442975	-0.444890807	 1.7898693202	 0.128687
H	-0.1003456174	-1.7856701909	 1.1157360914	 0.143866
H	 0.7295498703	-0.4437783949	 1.9178840405	 0.127923
H	 0.8653477917	-2.5153877981	-0.7102891193	 0.103132
H	-1.2967327126	-3.593299178	-0.2137162057	 0.100032
H	-2.1744791297	-2.1729294148	-0.8478436341	 0.10626
H	-0.2749771503	-1.9823618688	-3.4757676026	 0.133978
H	 0.6868815434	-3.416927373	-2.9899103829	 0.098093
