15
gdb 129824	4.701	1.00882	0.87982	3.7966	69.46	-0.2204	0.0044	0.2248	1268.4744	0.113022	-453.914985	-453.907162	-453.906218	-453.947753	29.102	
N	 0.0829405196	 1.1073478094	 0.7640909412	-0.595718
C	-0.0333942882	-0.1165342837	 0.1548523143	 0.494263
C	-0.6059265471	-1.3016213857	 0.5256384469	-0.456193
C	-0.4325666133	-2.1107281027	-0.6282848768	 0.426238
N	 0.1794104882	-1.4834108974	-1.606412193	-0.235407
O	 0.4448144962	-0.1960494174	-1.0946884527	-0.214709
C	-0.8477051031	-3.5160719108	-0.8213006665	-0.024757
C	-0.635641964	-4.5322728524	 0.2245244477	-0.177153
O	-1.9273230485	-3.9753410427	-0.0012601764	-0.229793
H	 0.8068792228	 1.6970849117	 0.3791573927	 0.268762
H	 0.0850537902	 1.0846895836	 1.7721447792	 0.267321
H	-1.1054592842	-1.5507849605	 1.4452167664	 0.120772
H	-0.8799985092	-3.8417684695	-1.8589989777	 0.114012
H	-0.5141162539	-5.5751393209	-0.064778714	 0.124069
H	-0.1553453756	-4.242421141	 1.1574932588	 0.118293
