16
gdb 19402	3.13098	2.16881	1.61649	0.6478	63.98	-0.2523	0.073	0.3253	829.7886	0.129215	-383.672561	-383.665428	-383.664484	-383.703721	27.245	
C	-0.0574979342	 1.5892879474	-0.1138443407	-0.412488
C	 0.0366174366	 0.0785255357	 0.0328639979	-0.105704
C	 1.051044707	-0.6738791051	-0.8589498265	 0.022063
O	 2.3604503018	-0.230510608	-0.4829854409	-0.242218
C	 1.7386285493	-1.2607035568	 0.3040076461	-0.093309
C	 0.7934376496	-0.5335646937	 1.2471871733	 0.438315
C	 0.9885408447	-0.0778393927	 2.619864223	-0.262737
O	 0.1144677734	-1.1792977863	 2.3048503577	-0.277278
H	 0.9403801053	 2.0355952388	-0.0996677126	 0.13496
H	-0.5444432521	 1.8643815193	-1.055584667	 0.117993
H	-0.6432447007	 2.0279409524	 0.7007133009	 0.119575
H	-0.9484272726	-0.3982427418	-0.0230520894	 0.096551
H	 0.923724237	-1.057568322	-1.8644620413	 0.108226
H	 2.2653830831	-2.1984951389	 0.4344127882	 0.115531
H	 1.8981278028	-0.3416914961	 3.1571661652	 0.120642
H	 0.4865764689	 0.8239028179	 2.9669636561	 0.119878
