17
gdb 41514	3.11422	2.00515	1.49752	3.7983	71.18	-0.2469	0.0049	0.2518	887.4895	0.140009	-417.971888	-417.965612	-417.964668	-418.002314	25.887	
C	-0.0731367087	 1.432304906	-0.0410304587	-0.114374
O	 1.2513239735	 1.9517324894	 0.2431090668	-0.242099
C	 1.8093403689	 0.8954379149	 0.9117440102	 0.340611
N	 2.2064485763	 0.9538373923	 2.1076766745	-0.263421
C	 2.0767481066	-0.3503742585	 2.7661465202	-0.155215
C	 0.6162627108	-0.8197632022	 2.4699392213	-0.252331
C	 0.5122711708	-1.0326398403	 0.9619644206	-0.022677
C	 0.1288976363	-0.089175104	-0.1610725643	-0.085146
N	 1.5440579269	-0.3025939214	 0.1776354989	-0.136777
H	-0.7591813249	 1.7275480029	 0.7616577773	 0.123866
H	-0.4107531522	 1.8622173217	-0.9853594532	 0.132941
H	 2.7878264801	-1.1031978499	 2.4009102718	 0.116814
H	 2.2431553656	-0.2196768726	 3.8378811174	 0.111801
H	 0.3810206391	-1.7565581936	 2.9830615269	 0.108277
H	-0.0683623101	-0.053865375	 2.8455950665	 0.120958
H	 0.4570209713	-2.0796386944	 0.6685208213	 0.106475
H	-0.2217747503	-0.5533426452	-1.0795335877	 0.110296
