16
gdb 46198	3.19131	1.59833	1.21122	2.2261	69.54	-0.2387	0.0179	0.2565	995.7913	0.124875	-437.826996	-437.819717	-437.818773	-437.858847	27.963	
O	-0.1418887579	-0.0158022584	 0.0203578743	-0.370257
C	-0.0966807856	 1.1870528914	 0.0272478131	 0.359672
N	-1.0576706757	 2.1681715928	 0.0524544679	-0.344675
C	-0.13368372	 3.3120504888	 0.0412516857	-0.260122
C	 1.0058649655	 2.2689255398	 0.0126631807	 0.255711
C	 2.2797574171	 2.3141957253	 0.8837163118	-0.018083
C	 2.9186378961	 1.2426288756	-0.0301442553	-0.237452
C	 2.2457761551	 2.3255827127	-0.9053942172	-0.018201
O	 2.8087219241	 3.3721944854	-0.0145350045	-0.322888
H	-2.064683563	 2.1141054453	 0.0714669689	 0.254895
H	-0.2105985097	 3.9438821608	-0.8484521482	 0.122338
H	-0.1756639535	 3.9332372811	 0.9407125663	 0.122357
H	 2.3694958519	 2.4692009288	 1.9587718101	 0.103052
H	 4.0084144974	 1.2548834987	-0.0507856927	 0.109405
H	 2.4777520147	 0.2444128396	-0.0281050633	 0.141211
H	 2.2947444135	 2.4942258523	-1.9810276976	 0.103037
