18
gdb 24083	6.50731	0.70619	0.66757	2.6411	85.24	-0.2054	0.0441	0.2495	1645.4202	0.148069	-364.817645	-364.808825	-364.807881	-364.85214	32.856	
C	 0.0025472538	-1.2518104394	 0.0268047894	-0.449893
C	-0.0220209327	-0.0505447452	 0.0741702923	 0.298597
C	-0.0100766389	 1.4060777952	 0.1225743451	-0.337112
C	 1.4015837951	 2.0086603342	-0.1049449385	-0.318777
C	 1.4066159484	 3.5073337183	-0.0402657031	 0.286303
C	 1.5044019525	 4.3726340791	-1.1084619568	-0.187708
N	 1.4428159413	 5.6566829727	-0.6283677958	-0.230406
C	 1.3075254895	 5.6340747197	 0.7358551799	-0.073254
C	 1.2805484241	 4.3177709817	 1.1298790135	-0.242953
H	 0.009147648	-2.3126223887	-0.0113017443	 0.190253
H	-0.6951178752	 1.8097545013	-0.6330330666	 0.129367
H	-0.3949819051	 1.7473870668	 1.0913396735	 0.131518
H	 2.0796627975	 1.5882065048	 0.6463161952	 0.113532
H	 1.7711524683	 1.6718787019	-1.0789208566	 0.108028
H	 1.6177490615	 4.175970494	-2.163032967	 0.114643
H	 1.5040673689	 6.4870384518	-1.1901736558	 0.261063
H	 1.2484373525	 6.5482041829	 1.3044075084	 0.117179
H	 1.1888806705	 3.965294529	 2.1466486972	 0.089621
