17
gdb 133870	3.2299	2.02454	1.96007	1.7397	70.28	-0.2505	0.071	0.3215	801.6841	0.139275	-421.7415	-421.735945	-421.735001	-421.770998	24.855	
C	-0.8617862223	 1.6724339168	 0.5366851423	-0.325902
C	 0.5627733935	 1.570181682	-0.2169299128	-0.153758
C	-0.0780892685	 0.4534931904	-1.0903669732	-0.045847
C	 0.5685339851	-0.8869608606	-1.4768942393	-0.269869
C	 0.5976209536	-1.525322579	-0.0736845885	 0.146121
O	 1.5824730228	-0.7428403053	 0.6196975653	-0.286638
C	 0.8978684526	 0.47775442	 0.8469489849	 0.103684
C	-0.518566432	 0.170115168	 0.3707521441	 0.383949
O	-0.6949281365	-1.2203040208	 0.5404351944	-0.33885
H	-1.6800201954	 2.0713900847	-0.0650144977	 0.114497
H	-0.8490009162	 2.089530226	 1.5460650189	 0.112092
H	 1.1517527556	 2.4292124199	-0.5384943	 0.085133
H	-0.8625805815	 0.790086119	-1.7694818527	 0.073665
H	 1.5765707735	-0.8477884653	-1.8933990398	 0.116779
H	-0.0859602259	-1.4267588453	-2.1670486621	 0.106363
H	 0.8084315907	-2.5872587973	 0.0361507491	 0.095658
H	 1.068097651	 0.8143685669	 1.8709980972	 0.082923
