16
gdb 61374	2.6375	0.96502	0.82551	1.9545	73.78	-0.2546	-0.0801	0.1745	1409.7398	0.121067	-437.887191	-437.877368	-437.876424	-437.923515	34.194	
C	-0.0099001326	 1.667231518	-0.0556310155	-0.385386
C	 0.038272041	 0.1301741261	 0.0381919725	-0.124479
N	 0.9539627964	-0.318696181	 1.0855565066	-0.309491
C	 2.2315357281	-0.6709775208	 0.8312777519	 0.315668
O	 2.7893748946	-0.6416271552	-0.2523180593	-0.367191
C	 2.984501956	-1.1432224649	 2.0791441997	 0.103869
O	 2.494095507	-1.1823519152	 3.1776799816	-0.245062
C	-1.289341503	-0.4421746116	 0.258204218	 0.30255
C	-2.3874846693	-0.8852423102	 0.4602171577	-0.439666
H	 0.9929138133	 2.0517484342	-0.2571507061	 0.138958
H	-0.676709659	 1.9731980517	-0.8658803987	 0.135123
H	-0.3786625442	 2.0994856252	 0.8784502205	 0.127766
H	 0.4555390952	-0.2588233223	-0.8977108967	 0.149631
H	 0.6296353045	-0.4094950374	 2.0383732595	 0.27121
H	 4.0282787941	-1.4422486107	 1.8602000531	 0.119895
H	-3.3563036521	-1.2891372258	 0.6234902852	 0.206605
