13
gdb 20528	5.02633	1.74393	1.30507	1.7348	60.52	-0.2855	-0.0589	0.2265	867.877	0.096796	-394.833777	-394.826921	-394.825977	-394.865315	24.025	
C	-0.0239135925	 1.5064826865	-0.047025809	-0.486688
C	-0.0255655997	 0.0066791708	 0.0600507578	 0.43266
O	-0.042618794	-0.6298966722	 1.0810355918	-0.29927
N	-0.0032970107	-0.6862140539	-1.184214486	-0.036783
C	 0.0012127676	-2.0377552121	-1.3781621923	 0.050413
N	 0.0239518541	-2.3129577504	-2.6585683044	-0.273815
C	 0.0331411448	-1.0675426102	-3.2355233929	 0.049625
N	 0.0177381339	-0.0557059444	-2.3962499467	-0.243142
H	 0.8640593587	 1.8480237202	-0.5855060144	 0.167908
H	-0.8884485524	 1.8478901388	-0.6223086861	 0.167917
H	-0.0447081102	 1.9223005855	 0.9595433668	 0.151263
H	-0.0127597519	-2.7337662332	-0.5551121808	 0.178155
H	 0.0518472322	-0.9178301254	-4.3048966037	 0.141759
