18
gdb 68963	2.53619	1.62878	1.22559	4.4602	81.83	-0.2478	-0.0033	0.2445	1060.9075	0.148289	-364.836068	-364.827986	-364.827042	-364.868314	31.546	
C	-0.0374845508	 1.5156475453	-0.0105125743	-0.48024
C	 0.0444060154	 0.0083766046	-0.0145554884	 0.277311
C	-0.79257565	-0.7829348538	 0.9448915594	-0.347194
C	 0.7291771878	-0.7815063918	 1.1258365698	 0.151697
C	 1.4378268957	-1.9191200075	 0.4586148107	-0.144701
C	 1.2559034312	-1.8971135106	-0.8616892646	-0.08048
C	 0.4513081709	-0.6995508423	-1.3133983017	-0.333737
C	 1.295952903	-0.1417951187	 2.2759742862	 0.202424
N	 1.7522255374	 0.3779918165	 3.2043194853	-0.357307
H	 0.8885118642	 1.9611482603	-0.3887700609	 0.129758
H	-0.8600917903	 1.8575015636	-0.648772135	 0.125134
H	-0.2089440663	 1.9057527923	 0.9964867276	 0.137979
H	-1.3694533758	-0.2197546535	 1.6709926148	 0.132781
H	-1.2333256478	-1.7246579885	 0.6348965488	 0.125166
H	 1.9892644357	-2.6614530478	 1.0218260164	 0.117144
H	 1.6211873063	-2.64769917	-1.5526018149	 0.107747
H	-0.4251839369	-0.987578721	-1.9075505256	 0.119502
H	 1.0508142404	-0.0355465072	-1.9507907136	 0.117015
