16
gdb 22649	3.08978	1.08127	1.02334	0.9952	73.3	-0.2503	-0.0033	0.247	1211.8192	0.122774	-437.807216	-437.79867	-437.797726	-437.840761	31.817	
O	-0.2154989363	 1.2936300958	 0.2800149302	-0.396049
N	-0.0310633241	-0.1015452125	 0.2510564262	-0.212894
C	-1.123338713	-0.6875389386	-0.0223064596	 0.373022
C	-2.48408645	-0.0729614585	-0.2594712821	-0.157481
O	-3.3390669413	-1.1673290146	-0.5773670118	-0.251276
C	-2.7962765421	-2.3478658295	 0.0232887759	-0.090755
C	-1.2635923048	-2.1850117993	-0.1264243051	-0.318517
C	-3.209203719	-2.4909429315	 1.4237140665	 0.358866
C	-3.5423058412	-2.5982936453	 2.5734590564	-0.480301
H	 0.663717216	 1.6128359549	 0.5086708481	 0.309515
H	-2.8215016608	 0.4626049005	 0.6396963247	 0.132467
H	-2.4905888776	 0.6317258234	-1.0961010076	 0.138752
H	-3.1777643718	-3.1922431779	-0.5576425381	 0.117731
H	-0.9611689246	-2.52913028	-1.1217123244	 0.130892
H	-0.6845301753	-2.7245248009	 0.6228105836	 0.141288
H	-3.8441718539	-2.697368206	 3.5871730671	 0.204739
