18
gdb 132518	2.99139	1.27324	0.90304	1.8218	82.77	-0.2282	-0.0015	0.2267	1252.5774	0.147286	-409.998045	-409.989693	-409.988749	-410.030763	32.016	
C	 0.0047348845	 1.520424213	-0.0176480376	-0.496107
C	 0.0101612751	 0.011806363	-0.0035137673	 0.222175
C	-0.0045006025	-0.7034051655	-1.2017819515	-0.169316
C	-0.0000776193	-2.095691558	-1.2299562267	-0.269811
C	 0.0195569734	-2.772129273	-0.0226302039	 0.310031
F	 0.0243062051	-4.1118010196	-0.0172002014	-0.084381
C	 0.0345235942	-2.0952326806	 1.1881561472	-0.349539
C	 0.0300122424	-0.7002895627	 1.2121856711	 0.263953
C	 0.0465284248	 0.0263161628	 2.5338040908	-0.495031
H	 0.888781047	 1.9366130482	 0.4803548853	 0.128161
H	-0.0098592704	 1.9024530444	-1.0414668903	 0.121564
H	-0.869048647	 1.9304860133	 0.5030717866	 0.128194
H	-0.0198080042	-0.1580720602	-2.1406622277	 0.095151
H	-0.0114796083	-2.6495993869	-2.1610098156	 0.107315
H	 0.0496585048	-2.6670156794	 2.1097127214	 0.100821
H	 0.925670696	 0.6750562503	 2.6265494887	 0.131487
H	-0.8317509791	 0.6723707797	 2.6501007437	 0.13144
H	 0.0588668736	-0.6755148788	 3.3710513071	 0.123892
