15
gdb 17730	4.66787	2.59462	2.1146	0.9899	63.87	-0.2397	0.0766	0.3163	664.35	0.120822	-362.528393	-362.523164	-362.52222	-362.55734	22.177	
C	-0.0856536824	 1.5311858894	 0.002626547	-0.251289
N	 1.4485039283	 1.3157882749	-0.0277985102	-0.186453
C	 1.295354947	 0.1665231974	 0.9968266297	-0.037799
C	 1.8239343941	-0.9948317511	 0.1412348357	-0.141389
C	 0.6726517615	-2.0545386253	 0.2595295843	-0.115758
O	-0.5566519581	-1.2515411394	 0.2346393941	-0.345653
C	 0.0447472544	 0.0104417185	 0.1174745565	 0.400164
C	 1.238450307	 0.0221519441	-0.8502948767	-0.037798
H	-0.4292643668	 2.0910062073	 0.8766595712	 0.11513
H	-0.4847658097	 1.9501800246	-0.9250342483	 0.11513
H	 1.3482215184	 0.349069967	 2.0693331614	 0.086107
H	 2.8486655234	-1.3681639974	 0.138845254	 0.081196
H	 0.6556984569	-2.7550916101	-0.5817027911	 0.116153
H	 0.7105476673	-2.6159351982	 1.1987479536	 0.116153
H	 1.2247230886	 0.0357501083	-1.9393381815	 0.086107
