19
gdb 117186	2.10378	1.11565	0.87516	2.577	68.81	-0.2541	-0.0404	0.2138	1387.0477	0.156116	-497.290926	-497.280532	-497.279587	-497.32731	36.304	
C	-1.4603768543	 0.9232641218	-0.1519959221	-0.245777
O	-0.8615249809	-0.0163707322	 0.7222115683	-0.218844
C	-0.1560838512	-1.0340827836	 0.0567579986	-0.178467
C	-1.018709342	-2.2036714055	-0.4116356979	 0.319869
O	-0.6285323037	-2.9622417474	-1.2746437385	-0.322507
C	-2.3442025889	-2.4773366629	 0.2849069647	 0.020864
O	-3.0127138376	-3.5345310349	-0.3638623945	-0.44677
C	-2.1281934588	-2.8542657832	 1.7694387638	-0.073942
O	-3.3461478438	-3.272951384	 2.3354255895	-0.417599
H	-1.9732927368	 1.6573676628	 0.4723872009	 0.142104
H	-0.7035899548	 1.4356662939	-0.7632862779	 0.119073
H	-2.1937309433	 0.4567906557	-0.8260198189	 0.116164
H	 0.4157192075	-0.6607983527	-0.804649312	 0.128364
H	 0.5670224873	-1.4442673745	 0.7747830846	 0.146662
H	-2.9752486962	-1.5798918134	 0.2563518028	 0.108803
H	-2.3595541409	-3.9163229242	-0.9737084421	 0.2956
H	-1.3615471053	-3.6458838269	 1.8273385277	 0.085609
H	-1.7787284391	-1.9846792144	 2.3324825887	 0.127334
H	-3.7155502072	-3.9094773742	 1.7092449244	 0.293462
