21
gdb 70601	2.06612	1.83448	1.41815	2.6267	76.99	-0.2242	0.0611	0.2853	1051.2935	0.181244	-424.218451	-424.209349	-424.208405	-424.251301	35.947	
C	-0.4698082691	 1.379343019	-0.1146438579	-0.510062
C	-0.0032347019	-0.0517506397	 0.0008068731	 0.294942
C	-0.5464552562	-0.9449927457	 1.1109846568	-0.389058
C	 0.9088236746	-0.5453822576	 1.0845822219	 0.075937
O	 1.8391046856	-1.4658901683	 0.5827078833	-0.257315
C	 1.3759413115	-1.8972306168	-0.6929305277	-0.116326
C	 0.4733456008	-0.7812997535	-1.2676456018	 0.291803
C	-0.6449240811	-1.3173062699	-2.1618495618	-0.445825
O	 1.3406058542	 0.0722011552	-2.0208696451	-0.470283
H	 0.2927884062	 2.0070361078	-0.5864487706	 0.124178
H	-1.3954677164	 1.4599282757	-0.6988125704	 0.114
H	-0.6770754527	 1.8014588221	 0.8733000168	 0.12072
H	-1.182122351	-0.4651239472	 1.8481693187	 0.109406
H	-0.8123986742	-1.9755560363	 0.9015930776	 0.112259
H	 1.3335565417	 0.0873824883	 1.8553446286	 0.09926
H	 2.2406915275	-2.0659328383	-1.3382891724	 0.123142
H	 0.8147927009	-2.8374275329	-0.6013240993	 0.089609
H	-1.3146145513	-1.9840057786	-1.6115585237	 0.121084
H	-1.2506524203	-0.4936077797	-2.5581000554	 0.109208
H	-0.2254494352	-1.8639761356	-3.0120407137	 0.125703
H	 0.7996171865	 0.740822512	-2.4535150672	 0.277616
