18
gdb 40894	3.76454	1.30642	1.28359	2.1383	76.44	-0.2255	0.0028	0.2283	1047.793	0.148964	-401.898139	-401.8909	-401.889955	-401.929898	28.393	
C	-0.0303179367	 1.5130134979	-0.0129016638	-0.143669
O	 1.3400160331	 1.5245280008	 0.4446047069	-0.278819
C	 1.4314819092	 0.0818070435	 0.4128763269	-0.153879
C	-0.0338454935	-0.0137729265	 0.0060415269	 0.305169
C	-1.1059877384	-0.9525756361	 0.4240382975	-0.168597
C	-2.4938182524	-0.4202271295	 0.3292538379	-0.068567
C	-2.7811192728	-0.1083176442	-0.9353181748	-0.089291
C	-1.6205469037	-0.4467920869	-1.8447007188	-0.215014
N	-0.549697541	-0.9657003012	-0.9617434959	-0.157454
H	-0.7106534855	 2.01230668	 0.6864393454	 0.108846
H	-0.132393063	 1.9753957487	-1.0044760077	 0.102173
H	 2.137557423	-0.2765248625	-0.3469352348	 0.109961
H	 1.699816677	-0.3368265063	 1.3907659404	 0.104134
H	-0.8793655751	-1.800005748	 1.0672284685	 0.097358
H	-3.1466326258	-0.3054436495	 1.1853887373	 0.106798
H	-3.7031816365	 0.3360996658	-1.2911167825	 0.10467
H	-1.8850178331	-1.2180582397	-2.5798089848	 0.118814
H	-1.2589608149	 0.4184824839	-2.4157974945	 0.117366
