15
gdb 29627	2.4793	1.99609	1.11343	3.1623	71.09	-0.2298	-0.0364	0.1934	1014.584	0.115635	-450.185619	-450.177964	-450.177019	-450.218087	28.345	
C	-0.015893201	 1.4664581127	 0.0169745687	-0.338177
N	 0.0031688848	 0.0034280488	 0.0350370806	-0.152536
C	 0.0604953322	-0.6779198108	-1.2209255007	 0.418471
N	 0.0903347705	 0.0472868687	-2.2690537448	-0.568691
N	 0.0782820889	-2.0630484027	-1.1765548815	-0.311903
C	 0.0418242982	-2.6317331449	-0.0120901281	 0.067727
N	-0.0135195868	-2.0323885789	 1.2123477844	-0.404556
C	-0.0301041387	-0.7256041382	 1.1630565617	 0.53287
O	-0.0832479505	-0.0372098905	 2.3048317521	-0.39391
H	 0.8800850041	 1.8286291374	-0.4908620005	 0.161318
H	-0.8802565963	 1.8051919276	-0.5575206379	 0.161309
H	-0.0595406355	 1.8399751457	 1.0364898473	 0.154899
H	 0.1299956751	-0.5682843439	-3.0795455642	 0.228828
H	 0.0562609007	-3.7199416161	 0.0119699992	 0.12494
H	-0.1004873258	-0.7049988549	 3.0061218638	 0.31941
