19
gdb 6886	2.91803	1.61252	1.40667	3.7819	73.7	-0.2437	0.0112	0.255	1003.6671	0.162882	-365.073016	-365.063746	-365.062802	-365.10634	33.539	
C	 0.0701542032	 1.3734201087	-0.3163467269	-0.413514
C	-0.045295291	-0.0983151442	 0.0065553964	-0.037465
N	 1.0552458399	-1.0129481976	-0.2219196973	-0.093063
C	 2.2518163163	-0.7547736014	-0.8451285265	 0.140425
O	 2.3824502948	-0.1318327791	-1.8744727773	-0.310905
C	 0.6560640462	-0.7900256308	 1.1630779031	 0.278175
C	 1.5810176747	-0.0193838428	 2.0856641843	-0.45489
C	-0.0437884032	-1.9628339553	 1.8240781476	-0.44038
H	 1.0197824757	 1.8035913613	 0.0056815445	 0.128639
H	-0.0035632737	 1.5256052247	-1.3963066415	 0.150768
H	-0.743145578	 1.9241308834	 0.1675598305	 0.118737
H	-1.0121271515	-0.5246166452	-0.2639706681	 0.095045
H	 3.0978832961	-1.2571452825	-0.3349592039	 0.076122
H	 2.0972949526	 0.7967255154	 1.5768840309	 0.132095
H	 1.0144569482	 0.4015594523	 2.9229867041	 0.128568
H	 2.3414550289	-0.6853190524	 2.5079227517	 0.127949
H	 0.6858377503	-2.6756997324	 2.2239063323	 0.122811
H	-0.6669376564	-1.6194345598	 2.6568784439	 0.121234
H	-0.6778320632	-2.4922316522	 1.1089687123	 0.129651
