19
gdb 75150	3.26662	1.07043	1.03296	0.9322	84.	-0.2327	0.0296	0.2623	1269.7938	0.156924	-385.872925	-385.863582	-385.862637	-385.906711	35.717	
C	 0.5795036354	 1.4780274983	 0.0879771129	-0.498346
C	 0.1130861464	 0.0631696391	-0.0414847833	 0.337528
C	 0.1785598827	-0.719708942	-1.1193206594	-0.16748
C	-0.4258092288	-2.0788260788	-0.891274508	-0.292465
C	-0.5990709531	-2.1400356476	 0.6623555753	 0.192105
O	 0.5446554671	-2.752277831	 1.2666703101	-0.454241
C	-0.553956865	-0.6533917466	 1.1113904091	-0.320985
C	-1.8195777583	-2.8432951827	 1.0667466492	 0.289856
C	-2.8032755773	-3.4551631651	 1.3897305061	-0.478182
H	 1.3306870085	 1.5755707973	 0.8819763245	 0.128709
H	 1.018820823	 1.8445729379	-0.8437548958	 0.123021
H	-0.2480024916	 2.1461063724	 0.360048446	 0.124464
H	 0.5942757403	-0.4211101244	-2.0758936496	 0.085435
H	-1.3897457696	-2.1889314364	-1.4042339057	 0.11478
H	 0.2103879651	-2.9068856971	-1.2259554238	 0.101569
H	 0.5102073201	-3.6934514564	 1.0629441419	 0.279966
H	 0.000431016	-0.5809575713	 2.0528627039	 0.123579
H	-1.5612791694	-0.2606643747	 1.2956753434	 0.114933
H	-3.6756713917	-3.9855552509	 1.6822759332	 0.195754
