13
gdb 48109	2.99014	1.23427	1.02077	3.6532	65.47	-0.2705	-0.1001	0.1705	1123.9434	0.087412	-452.743917	-452.735481	-452.734537	-452.777892	28.743	
O	-0.7494980529	 1.4740517488	-0.3058815226	-0.224305
C	 0.3299050776	 1.1014897454	 0.066598511	 0.099706
C	 1.5861743194	 1.9822121419	 0.0963485553	 0.297133
O	 2.5986820454	 1.5813488383	 0.6188506537	-0.304204
N	 1.4643834603	 3.1804950875	-0.5791697106	-0.074363
C	 0.4945669967	 4.2274720764	-0.4079010305	-0.22602
C	 1.9735915585	 4.4732646424	-0.1748197961	-0.171045
C	 2.4423158208	 4.6775905183	 1.1766001913	 0.3097
N	 2.8123637334	 4.8792029939	 2.2525694193	-0.313302
H	 0.5314837506	 0.0869461749	 0.4637084071	 0.12734
H	 0.0383391585	 4.6122491418	-1.3147082178	 0.154491
H	-0.1469018973	 4.1953653057	 0.4671626782	 0.165795
H	 2.5431733691	 5.0040578547	-0.9322933383	 0.159074
