10
gdb 781	9.42952	3.56336	2.58609	0.8594	43.61	-0.2132	0.0237	0.2369	460.0724	0.075398	-301.357437	-301.352423	-301.351479	-301.385553	18.266	
O	 0.1111822278	 1.3992677529	-0.1109291333	-0.44258
C	 0.0698495355	 0.0398211521	-0.0455893178	 0.246607
C	-0.0102865449	-0.8034251586	-1.1352931836	-0.11183
N	-0.0263343678	-2.0624563364	-0.6173203444	-0.171746
N	 0.0370540728	-2.0954420992	 0.7189120161	-0.215021
C	 0.0964202153	-0.8127957475	 1.0801026174	-0.11832
H	 0.164527632	 1.7483386637	 0.7834810159	 0.300846
H	-0.0548355262	-0.6040944809	-2.1926166752	 0.13357
H	-0.0790852146	-2.9291600291	-1.1237071161	 0.275801
H	 0.1556388703	-0.5455980669	 2.125726801	 0.102673
