17
gdb 93349	2.24513	1.52147	1.0725	5.4625	68.93	-0.2451	-0.0313	0.2138	1130.2541	0.134396	-458.997614	-458.988831	-458.987887	-459.032049	31.712	
O	-0.2589551289	 1.1539211136	 1.2188267444	-0.436401
C	-0.0669710201	 0.2090238364	 0.1702263728	 0.08207
C	 0.9110798959	-0.9095629	 0.5913198924	-0.249177
C	 0.0965844315	-1.7775651046	 1.5622486439	-0.314285
C	-1.3624910129	-1.5888296803	 1.1293238939	 0.401624
O	-2.3206748664	-2.1536010672	 1.5837157317	-0.305965
C	-1.4060517376	-0.5294810986	 0.0072748195	-0.198113
C	-2.6456720622	 0.3457288564	 0.0579076758	 0.174222
O	-3.3666748248	 0.5292460267	-0.8876804703	-0.256127
H	 0.5723572048	 1.6147916269	 1.3690878733	 0.291395
H	 0.2415388991	 0.7096339784	-0.7556931752	 0.08506
H	 1.2084884719	-1.4839143411	-0.2931952857	 0.113465
H	 1.8230426318	-0.4969622679	 1.033236224	 0.101541
H	 0.3618762927	-2.8372949224	 1.5633532123	 0.135167
H	 0.179400921	-1.4214371959	 2.5944107427	 0.146389
H	-1.4109674222	-1.0581400037	-0.9536614957	 0.124104
H	-2.8437087534	 0.8116864635	 1.0422172701	 0.105031
