18
gdb 33533	2.10408	1.66563	1.13087	1.892	77.15	-0.2491	0.0335	0.2825	1115.6767	0.147125	-401.85296	-401.844406	-401.843462	-401.886298	32.231	
C	 0.3025294265	-1.3537717908	-0.2372679625	-0.427861
C	 0.1339528507	-0.1698428843	-0.1127765474	 0.265349
C	-0.0692267706	 1.2607327718	 0.0277792179	 0.060948
C	-0.2553289119	 1.798188304	 1.4778387271	-0.140631
O	 0.7636878735	 2.7935711983	 1.2853603635	-0.269922
C	 1.2135496628	 2.1545721737	 0.0741493667	-0.107549
C	-1.0790904332	 1.7625214435	-0.9996630774	-0.047752
C	-2.5137731595	 1.9388896038	-0.6775148516	-0.24514
N	-1.6496646451	 3.1096834886	-0.9132307614	-0.330206
H	 0.4512071035	-2.3999624015	-0.3443705782	 0.198282
H	-1.2233799649	 2.2411368489	 1.7365493394	 0.107774
H	 0.0189618149	 1.0616114733	 2.2420945401	 0.115883
H	 2.1406467191	 1.5893688954	 0.2249875628	 0.111102
H	 1.3325675945	 2.8652741991	-0.7495361985	 0.124399
H	-0.8135548882	 1.4690627343	-2.0134770457	 0.102948
H	-3.2665323636	 1.7631575498	-1.4403343118	 0.124179
H	-2.8431649886	 1.7219435866	 0.3353671722	 0.114191
H	-1.3887298697	 3.5545723755	-0.0356765653	 0.244007
