21
gdb 63754	3.04054	1.39743	1.25662	1.3393	85.27	-0.224	0.0108	0.2348	1116.9031	0.182165	-387.070426	-387.061824	-387.06088	-387.103039	33.816	
C	-0.0076332956	 1.499943444	 0.0575485071	-0.428508
C	-0.016652109	-0.0238826489	 0.0048264171	 0.27745
C	-1.389243027	-0.5797802726	-0.3575920868	-0.456118
C	 1.2024733826	-0.6066721676	-0.8374637345	-0.359988
C	 1.9219304359	-0.7065035938	 0.4861636119	 0.228773
C	 2.9213430577	-0.1856973325	 1.188140167	-0.240564
C	 2.3930000305	 0.1012770124	 2.5870273403	-0.107734
O	 0.9565992647	 0.0114510144	 2.4822174399	-0.278169
C	 0.6659224614	-0.6827782565	 1.2861702402	 0.066495
H	 0.985900987	 1.8850579362	 0.3039873144	 0.118297
H	-0.3075343802	 1.9218243443	-0.9080216637	 0.107506
H	-0.7032147867	 1.8649850368	 0.819677569	 0.122876
H	-1.7007611021	-0.2470087007	-1.3543761049	 0.114021
H	-1.3890211148	-1.6751931148	-0.3567088809	 0.110217
H	-2.1473538859	-0.2433287128	 0.3587086207	 0.120888
H	 0.949656209	-1.5727271001	-1.2854007067	 0.108521
H	 1.6468351181	 0.0374506464	-1.5996696886	 0.11129
H	 3.8964479616	 0.1389492641	 0.8474361346	 0.101557
H	 2.7543579821	-0.6038045065	 3.3530869939	 0.102859
H	 2.6587631655	 1.1131030989	 2.9197631971	 0.110503
H	 0.194708525	-1.6523564606	 1.507087983	 0.069826
