18
gdb 32586	3.29837	1.06021	0.86804	2.9474	76.13	-0.1823	0.0493	0.2316	1349.1765	0.146419	-439.10802	-439.098248	-439.097304	-439.143496	35.096	
C	 0.0433890706	 1.5019598952	 0.0393776193	-0.366068
C	-0.0062076665	-0.0296818724	 0.0189422447	-0.153555
N	-1.3513024956	-0.5707037282	 0.0012791408	 0.024293
C	-2.1272584469	-0.7962677021	 1.1179282045	-0.22915
C	-3.3897056899	-1.1360008574	 0.6843745324	 0.170344
O	-4.5237670986	-1.4771876741	 1.3781473947	-0.468317
C	-3.3857052766	-1.1022006182	-0.7341933728	 0.242413
O	-4.4425568938	-1.3993538848	-1.5439950438	-0.460173
C	-2.1191863538	-0.7411076501	-1.1318143928	-0.186513
H	 1.0816622066	 1.849480302	 0.0492313448	 0.115174
H	-0.451112781	 1.9171980265	-0.8432872552	 0.131317
H	-0.4603896278	 1.8949467255	 0.9271752084	 0.126957
H	 0.5206572545	-0.4125136302	-0.8617179299	 0.116991
H	 0.5074544116	-0.4364531948	 0.8967664628	 0.113071
H	-1.71901831	-0.7023251605	 2.1115408932	 0.107852
H	-4.2920948655	-1.6829527035	 2.287857458	 0.298173
H	-5.1692840115	-1.6667723572	-0.9701573032	 0.301268
H	-1.7062000559	-0.6080201957	-2.1176852859	 0.115924
