19
gdb 115525	2.73794	1.08256	1.02942	3.9469	76.08	-0.2485	0.0231	0.2716	1261.5673	0.158693	-419.191901	-419.182282	-419.181338	-419.226323	35.005	
C	-0.4380151758	 1.579563491	 0.0346933345	-0.441724
C	 0.0119855773	 0.1187279868	 0.0702287752	 0.133333
N	 1.3336974779	-0.1427650404	-0.556264798	-0.334082
C	 1.6932704996	-1.1166364318	 0.505765727	-0.173952
C	 0.5792887643	-0.5146281779	 1.3960411616	-0.013076
C	 1.0830172432	 0.4737146275	 2.4342942203	-0.109417
O	 1.722581579	-0.2983730542	 3.4395111503	-0.422055
C	-1.0531567209	-0.7388025423	-0.484246211	 0.25093
N	-1.8678891952	-1.4157263203	-0.9493483601	-0.344099
H	 0.3509126121	 2.2232069236	 0.4274467673	 0.131544
H	-0.6426138944	 1.8819869983	-0.9965592601	 0.135806
H	-1.3520973733	 1.7250755497	 0.6178855517	 0.133807
H	 1.3036893535	-0.500632172	-1.505395483	 0.230809
H	 1.5047251405	-2.1650752484	 0.2458860102	 0.112184
H	 2.7171125313	-1.0162874927	 0.8759137943	 0.11726
H	-0.0814569391	-1.2348220848	 1.8793160624	 0.105281
H	 1.7843330255	 1.1832413597	 1.9703383406	 0.103038
H	 0.2420466623	 1.0525209178	 2.8475572537	 0.093355
H	 2.1143243023	 0.3029020806	 4.079565823	 0.291059
