17
gdb 33675	3.08285	1.44525	1.37359	4.9255	76.94	-0.2408	0.0194	0.2602	1002.0525	0.139658	-380.856775	-380.849888	-380.848944	-380.888053	27.515	
N	-0.0660235352	-1.1481505204	-0.0620743313	-0.35949
C	-0.0420830275	 0.0090555469	-0.0220087584	 0.147087
C	-0.001859403	 1.4241430344	 0.039107098	 0.231238
C	-1.0104988068	 2.3550254131	 0.699387369	-0.10512
C	-0.2988556507	 3.2975797001	 1.6687003371	-0.246302
C	 1.2156486151	 3.0674085473	 1.3906211614	-0.225393
C	 1.2336091753	 2.3719864854	 0.0285112795	-0.05635
N	 0.560662101	 3.1927419189	-1.0325261888	-0.310163
C	-0.6985309274	 2.4975309102	-0.778743418	-0.073784
H	-1.9829291568	 1.9436483225	 0.9451112845	 0.111446
H	-0.5911758626	 4.3383126472	 1.4925449793	 0.109492
H	-0.5598363635	 3.0648565383	 2.70395905	 0.118621
H	 1.7929093988	 3.9976932844	 1.3813543446	 0.107627
H	 1.659680107	 2.4122453683	 2.1482545957	 0.117775
H	 2.1925082583	 1.9586612703	-0.2853215171	 0.099395
H	 0.5347264726	 4.1900493173	-0.8220742296	 0.21573
H	-1.4466063844	 2.3745895359	-1.553889496	 0.118192
