19
gdb 111535	4.94964	0.9092	0.85773	2.0958	76.6	-0.2308	0.0633	0.2941	1373.5628	0.159999	-419.119983	-419.111696	-419.110751	-419.153098	31.819	
O	 0.0112371517	 1.2025522558	 0.4868702226	-0.41935
C	-0.0298072189	-0.008312449	-0.2435457045	-0.086713
C	-1.4167505544	-0.6082545479	-0.2244010242	-0.019639
C	-1.5968390021	-2.0680422717	-0.0676414916	-0.150582
N	-1.7784431474	-1.125705704	 1.1132944111	-0.154473
C	-3.2613758124	-1.4144400344	 1.0700415692	-0.240309
C	-3.0656061885	-2.4230710492	-0.0658062337	 0.355957
C	-3.9222491573	-2.8836662938	-1.1787257594	-0.31067
N	-3.6290025106	-3.7642182324	-0.0251557406	-0.367842
H	-0.3361028063	 0.9903165696	 1.3618177913	 0.292537
H	 0.2682457159	 0.2325118211	-1.2693139655	 0.110294
H	 0.6891315015	-0.743073121	 0.1518869301	 0.089771
H	-2.1756151764	-0.0416557192	-0.7637013561	 0.093061
H	-0.7728377105	-2.775619959	-0.1169877952	 0.09835
H	-3.5840904886	-1.8895932725	 1.9984802611	 0.128735
H	-3.8733486502	-0.5284651211	 0.8710035365	 0.109376
H	-4.9560948976	-2.5555587377	-1.2459673997	 0.123628
H	-3.4492522339	-3.093356912	-2.1352140235	 0.114693
H	-2.9256438641	-4.4546756717	-0.2792669681	 0.233175
