16
gdb 27795	2.03528	1.76067	0.94958	2.901	78.88	-0.202	-0.0291	0.1729	1184.6175	0.124435	-437.93552	-437.927427	-437.926483	-437.968061	31.015	
C	 0.0736730818	 1.469336531	-0.0050922334	-0.470176
C	-0.0601954521	-0.0176146745	-0.0099277768	 0.40342
C	-1.2131001536	-0.7080150548	-0.0982638878	-0.32114
C	-1.1537979488	-2.1446570426	-0.0881827291	 0.427747
O	-2.3499271469	-2.7683438056	-0.1797289828	-0.425187
C	 0.0395999768	-2.7809776353	 0.0082031963	-0.346108
C	 1.2694875365	-2.0366259658	 0.1022220671	 0.386091
N	 2.4249052909	-2.557324993	 0.1959292363	-0.551642
O	 1.1400495893	-0.6347087436	 0.0866829092	-0.279854
H	 0.6995566456	 1.7989108281	-0.8414539301	 0.148558
H	-0.9043146826	 1.9464911048	-0.083949278	 0.137085
H	 0.5618594844	 1.8064280047	 0.9156687175	 0.148548
H	-2.1658101963	-0.2040405273	-0.1750817086	 0.116026
H	-2.2117985834	-3.7227720444	-0.1651451555	 0.305756
H	 0.1291299791	-3.8604510991	 0.0194026199	 0.105876
H	 3.1414850892	-1.8342029224	 0.2496790058	 0.215001
