18
gdb 65163	2.90726	1.19553	1.04481	3.7144	77.	-0.2753	-0.003	0.2723	1201.0237	0.146361	-401.924441	-401.915585	-401.91464	-401.958415	32.875	
C	 0.070418678	 1.488072008	-0.1180205234	-0.493336
C	 0.0931450232	-0.0279718305	-0.0747280953	 0.319681
C	 1.2541696646	-0.7645386213	-0.7110232258	-0.297482
C	 1.1476439479	-0.6976148003	 0.787970063	-0.299106
C	-1.2195953085	-0.748301536	-0.1245163716	 0.022481
O	-2.3760255637	-0.1289229501	 0.438185059	-0.235365
C	-2.3986465691	-0.4132853531	-0.9629912964	-0.118646
C	-2.4555974652	 0.7012549231	-1.882201603	 0.31143
N	-2.5412224173	 1.5531971905	-2.6590195814	-0.333293
H	 1.0754689664	 1.8802831303	 0.0611171879	 0.114375
H	-0.2674409496	 1.8681296865	-1.0848435186	 0.151757
H	-0.5935873509	 1.8873120905	 0.6538108536	 0.137588
H	 1.0604761635	-1.7160813447	-1.1956210461	 0.115883
H	 2.0079156104	-0.163051341	-1.2066325708	 0.12518
H	 1.8300603334	-0.0503916619	 1.3271407916	 0.121483
H	 0.8798660778	-1.603202818	 1.322406525	 0.116824
H	-1.1425610328	-1.8126703808	 0.1112622778	 0.101824
H	-3.064375608	-1.2270984612	-1.2498556553	 0.138722
