27
gdb 118467	1.91409	0.96626	0.7669	1.3996	92.6	-0.2524	0.0719	0.3244	1706.4507	0.249664	-390.703531	-390.691399	-390.690455	-390.741551	44.053	
C	 0.2540113276	 1.7891400014	-0.3817888518	-0.378734
C	 0.2242956122	 0.2805882278	-0.119386615	-0.184568
C	 0.9575258416	-0.5153367504	-1.2083085882	-0.163848
C	 0.891067666	-2.0540945041	-1.1045226475	-0.019323
C	 1.3739371988	-2.687670723	-2.4297756169	-0.181844
C	 1.147447563	-4.1977919899	-2.5698669938	-0.395486
C	 1.6089374511	-2.6592225283	 0.1287815748	 0.144315
C	 3.0754206313	-2.2683768557	 0.2831152344	-0.385833
O	 0.9759473683	-2.2945536553	 1.3579288108	-0.435225
H	 1.2826503595	 2.1666921408	-0.407494746	 0.111272
H	-0.2103794918	 2.037265452	-1.3433040358	 0.108103
H	-0.2807409691	 2.3406558519	 0.3980544789	 0.108543
H	 0.6565417439	 0.0589512384	 0.8594837758	 0.121775
H	-0.8204482315	-0.0583595185	-0.0720792962	 0.078294
H	 0.5323374367	-0.2321614004	-2.1812599133	 0.084422
H	 2.0074083778	-0.1953524811	-1.2481243231	 0.09317
H	-0.1720006364	-2.3305924546	-0.9946683218	 0.051422
H	 0.8476313522	-2.1819951395	-3.2483526565	 0.095272
H	 2.4372990592	-2.4595009598	-2.5794897334	 0.098819
H	 1.7635220766	-4.7818196217	-1.8798586051	 0.122006
H	 0.0997570124	-4.4597022658	-2.3817859196	 0.111873
H	 1.3929530265	-4.5309194459	-3.5833148705	 0.112447
H	 1.5635671915	-3.754284118	 0.0270766106	 0.064371
H	 3.1843680613	-1.192487045	 0.4438676261	 0.125947
H	 3.499763967	-2.7801119868	 1.1509799172	 0.122815
H	 3.6567451308	-2.5501836636	-0.5991393174	 0.114143
H	 0.0383483334	-2.4980621351	 1.2795380635	 0.275853
