15
gdb 47986	5.80916	0.72735	0.69426	1.7217	78.62	-0.2565	-0.07	0.1866	1554.7626	0.111089	-420.524894	-420.516823	-420.515879	-420.559422	28.515	
O	-0.7023512885	 0.7736591346	-0.5357142506	-0.228355
C	 0.1958428799	 0.8157516565	 0.2740081931	 0.015709
C	 1.3101050415	 1.7253361469	 0.2061504966	 0.060236
C	 2.2559003481	 2.4782382448	 0.1725478513	 0.071099
C	 3.3774760992	 3.3826147481	 0.118322308	-0.18745
C	 4.104827848	 3.6932712986	-1.2373799652	 0.054905
C	 2.8736845198	 4.4820157779	-1.7369509763	-0.237094
C	 3.1870240706	 4.8888838704	-0.2796654637	 0.054904
O	 4.6224330471	 4.9310649601	-0.6216453718	-0.30159
H	 0.218956451	 0.1343581264	 1.148447753	 0.102126
H	 4.0772219875	 3.2563787297	 0.946523061	 0.120311
H	 4.8064391888	 3.0581829513	-1.7771894324	 0.112357
H	 3.097246862	 5.2479214871	-2.4788636533	 0.119786
H	 1.9519729133	 3.9343136726	-1.9365105235	 0.130697
H	 2.7833371417	 5.6936111052	 0.3338833939	 0.112356
