14
gdb 5357	5.256	1.56596	1.2065	3.2146	73.64	-0.2541	-0.062	0.1921	932.1798	0.10962	-345.487298	-345.480999	-345.480055	-345.517825	23.879	
O	-0.0864159091	-0.0226509414	-0.0018039159	-0.267073
C	-0.0052112167	 1.1836996011	 0.0072386289	 0.087976
C	 1.262453888	 1.946216778	-0.0007012599	 0.222872
C	 2.4911085983	 1.2744379823	-0.0200745174	-0.177425
C	 3.6750333122	 1.99780256	-0.0273929404	-0.09363
C	 3.6395938539	 3.3944454622	-0.0154243367	-0.107444
C	 2.4199283111	 4.068186398	 0.0038655819	-0.093632
C	 1.2325459682	 3.3432207106	 0.0112042518	-0.194851
H	-0.9200358564	 1.8189427539	 0.022757172	 0.069515
H	 2.4864364103	 0.190151796	-0.0289986138	 0.127419
H	 4.628475159	 1.4804941625	-0.0424000502	 0.107475
H	 4.5670667095	 3.957810399	-0.021181526	 0.107605
H	 2.3969731413	 5.1525699527	 0.0131094848	 0.105989
H	 0.2747630003	 3.856192945	 0.0262120108	 0.105204
