19
gdb 105386	2.52988	1.14075	0.90982	4.6436	73.6	-0.2609	0.017	0.2779	1329.1761	0.156306	-460.165526	-460.155538	-460.154593	-460.200535	35.703	
C	 2.0739772577	 0.5811516665	-0.7703820137	-0.422246
C	 1.1175151418	-0.4787629764	-0.2686269653	-0.053993
C	 1.6035424604	-1.7547731924	 0.3849070426	-0.344232
C	 0.8300087754	-0.7332706901	 1.1851991388	 0.411432
C	 1.4774528678	 0.0535301884	 2.2943012208	-0.143187
O	 1.5636185179	-0.7846790138	 3.4400992188	-0.41969
O	-0.53684561	-1.0073037729	 1.4556758146	-0.238975
C	-0.8142100949	-2.051678778	 2.2770542354	 0.156042
O	-1.9285997677	-2.2859500048	 2.6380063196	-0.283915
H	 2.9887659501	 0.6269584645	-0.1728153407	 0.120383
H	 2.3714585118	 0.3608622215	-1.8008997399	 0.127646
H	 1.6143134893	 1.5752788682	-0.7624466542	 0.126649
H	 0.2288710953	-0.6046366007	-0.8810795493	 0.110094
H	 1.1077132136	-2.6845699637	 0.1314670412	 0.127337
H	 2.6632668174	-1.8517347463	 0.598128069	 0.124765
H	 2.4733725265	 0.3936985228	 1.9803300567	 0.093658
H	 0.8630135958	 0.9416533302	 2.4975572171	 0.10961
H	 1.6230646412	-0.2290536686	 4.2223451335	 0.295354
H	 0.0781610208	-2.6373895645	 2.544212265	 0.103269
