21
gdb 57281	2.56521	1.24016	1.0349	1.1311	84.37	-0.2601	0.037	0.2971	1262.5555	0.179896	-387.046891	-387.0369	-387.035955	-387.081419	37.885	
C	 0.0742922821	 1.5019456999	 0.0914184242	-0.402042
C	-0.0358238617	-0.0280372438	 0.0336655985	 0.125542
O	 0.5708524721	-0.5010999205	 1.2443829682	-0.448827
C	-1.4445886197	-0.4480432066	-0.0153599302	 0.318879
C	-2.583948631	-0.8310760195	-0.0562317554	-0.48926
C	 0.7023804418	-0.5781834766	-1.2041739372	 0.062006
C	 2.2465566736	-0.4143933699	-1.2747325306	-0.245262
C	 2.3246601503	-1.8342170033	-1.8975137955	-0.216378
C	 0.8954107716	-2.1120421764	-1.3583487358	-0.242029
H	 1.1277030329	 1.7857902191	 0.162986405	 0.129118
H	-0.3568690953	 1.9551732718	-0.8045375604	 0.12087
H	-0.4506700077	 1.8820278279	 0.9701443387	 0.130272
H	 0.2586260586	-1.3985687526	 1.398540834	 0.285961
H	-3.5942290272	-1.1572911803	-0.0874731783	 0.198269
H	 0.224354612	-0.1672186704	-2.0993736922	 0.075182
H	 2.6450710702	 0.421614049	-1.854058475	 0.093182
H	 2.6728662684	-0.3908802681	-0.2685924099	 0.117726
H	 2.3437596592	-1.7982965816	-2.9904961588	 0.10171
H	 3.1288818779	-2.4910201344	-1.5582945257	 0.097159
H	 0.9324014263	-2.6129726638	-0.3857023671	 0.086842
H	 0.1945558157	-2.6499287101	-1.9998047165	 0.101079
