19
gdb 108838	2.98957	1.30168	1.01252	2.2829	78.25	-0.22	0.0192	0.2391	1224.1956	0.159662	-419.202122	-419.193327	-419.192383	-419.235522	32.822	
C	-0.0091890718	 1.4218866036	 0.0563466187	-0.317071
N	-0.1032147625	-0.0202367733	-0.089947421	-0.374862
C	 0.5957812092	-0.6550182988	-1.0740731522	 0.426205
N	 1.2471274708	-0.0574298197	-2.006767558	-0.331599
C	 1.7507758697	-1.0605960293	-2.9638526379	 0.02244
C	 3.2496479534	-0.8851188591	-3.2129137852	-0.384738
C	 1.3792757407	-2.4245183689	-2.3777734738	 0.029206
O	 1.9584794041	-2.6609072004	-1.0883050025	-0.24912
C	 0.6106380449	-2.1573803151	-1.1579281113	-0.103494
H	 0.9894443658	 1.7497402367	 0.3739646117	 0.129036
H	-0.2177325912	 1.8895021605	-0.9082622017	 0.15508
H	-0.748753684	 1.7571047884	 0.787100056	 0.118132
H	-0.2618218996	-0.5514923455	 0.7512227552	 0.245524
H	 1.213598036	-0.93378785	-3.9154453815	 0.078047
H	 3.8047342626	-1.0870370795	-2.2931996266	 0.13071
H	 3.6016137858	-1.5685157604	-3.9927989969	 0.104927
H	 3.4585737495	 0.1401049325	-3.527874845	 0.123865
H	 1.2348722784	-3.3064721761	-2.9961974395	 0.097814
H	-0.1649954717	-2.7937968656	-0.7402992685	 0.099897
