23
gdb 104199	2.35739	1.24816	1.21809	2.6024	80.99	-0.2397	0.0585	0.2982	1233.338	0.20316	-425.428329	-425.417991	-425.417047	-425.462676	40.102	
C	 0.0005450921	 1.5733355111	 0.0276762196	-0.405523
C	 0.0484109835	 0.040484381	 0.0405097156	-0.234626
C	-1.3288195304	-0.6100901059	-0.0114210764	 0.356652
O	-2.1079189721	-0.2337174457	 1.1322548185	-0.503563
C	-2.1820030672	-0.5207152749	-1.307504759	-0.28532
C	-2.6720187775	-1.9720360555	-1.0606087137	-0.276043
C	-1.4681292626	-2.1818415544	-0.085538397	 0.394508
C	-0.2996466773	-2.9088862066	-0.7342274624	-0.428151
O	-1.7228082795	-2.8141230068	 1.140785597	-0.487155
H	 1.0084206593	 1.9977623991	 0.0474924264	 0.119483
H	-0.4999157206	 1.9521986348	-0.8707041381	 0.116338
H	-0.5320764576	 1.9604504598	 0.9027473919	 0.112705
H	 0.6433350927	-0.3128533126	-0.808853989	 0.096137
H	 0.555930806	-0.3045823434	 0.9495339264	 0.108403
H	-2.4541999018	 0.652039069	 0.990565484	 0.285284
H	-2.9404658604	 0.2670006268	-1.3318771586	 0.088658
H	-1.5604646042	-0.4296003756	-2.2025882542	 0.102624
H	-3.6190484697	-1.9990309288	-0.5177447266	 0.102261
H	-2.7352424528	-2.6394253684	-1.9233861	 0.093751
H	-0.0657623406	-2.5044016623	-1.72315893	 0.10917
H	 0.5943377552	-2.8472110422	-0.1074939809	 0.121814
H	-0.5600273183	-3.9653016481	-0.8508252799	 0.124326
H	-2.2400198161	-2.1834894105	 1.6589693164	 0.288267
