13
gdb 1944	9.57352	1.4315	1.31895	0.4688	56.48	-0.2604	-0.0344	0.226	847.3086	0.099769	-344.469516	-344.462773	-344.461829	-344.500826	23.669	
O	 0.4881235591	-0.2641277794	-0.2317064409	-0.245609
C	 0.2038753676	 0.8852749552	-0.0212950952	 0.162979
C	 1.1809458151	 2.02479408	 0.0590895131	-0.072733
C	 0.8413808565	 3.2651234232	-0.8371562548	-0.361905
C	 1.0592573263	 4.1484613732	 0.4025747391	 0.40712
O	 1.2499133481	 5.3151231115	 0.5654572477	-0.275264
C	 1.0593949758	 2.9260911092	 1.335530873	-0.361978
H	-0.8582416303	 1.1980688488	 0.1361942164	 0.06959
H	 2.1932311052	 1.6523797284	-0.1007665258	 0.108531
H	 1.4712053573	 3.4557766641	-1.7082926034	 0.14561
H	-0.2093660782	 3.2806692747	-1.152507647	 0.139054
H	 0.090731674	 2.8139580711	 1.8384152989	 0.139032
H	 1.8516803935	 2.86416073	 2.0841051289	 0.145573
