16
gdb 64850	3.28236	1.03791	0.90189	5.9002	74.26	-0.2798	-0.0161	0.2636	1277.623	0.124321	-396.931747	-396.923096	-396.922152	-396.965295	31.644	
C	-0.2252497192	 1.5925780697	 0.0183546772	-0.450628
C	 0.0032325915	 0.0768902346	-0.0308006626	 0.160749
C	 0.8218540233	-0.403936017	-1.2724839866	-0.285118
C	 2.0412761302	-0.4702271206	-0.3079660533	-0.121587
N	 1.103038939	-0.4264758003	 0.8333359606	-0.320284
C	 2.8939717386	-1.6572871857	-0.3673743813	 0.300289
N	 3.5792869845	-2.585021204	-0.4339151181	-0.310659
C	-1.2666512378	-0.6278109587	 0.1962599029	 0.275884
N	-2.2773058207	-1.1639926336	 0.357336378	-0.327601
H	 0.7084273971	 2.1233237808	-0.1914798131	 0.12813
H	-0.971605404	 1.8975037887	-0.7207895857	 0.149969
H	-0.5855932931	 1.8935039099	 1.006599562	 0.145963
H	 0.5160580047	-1.3850156872	-1.6315988915	 0.159942
H	 0.8933855981	 0.2982552126	-2.1019064104	 0.135839
H	 2.6846913723	 0.4138882076	-0.4050824745	 0.123154
H	 1.3653400756	 0.1699885132	 1.6111001764	 0.235956
