19
gdb 6488	3.77971	1.33453	1.2763	3.3059	72.37	-0.2371	0.0345	0.2716	1075.0748	0.163683	-365.091173	-365.081898	-365.080954	-365.125879	33.414	
C	 1.6621210718	 1.1507778981	-2.1163161189	-0.488907
C	 1.4673306134	-0.3590077854	-2.0686471776	 0.401681
O	 2.3321045066	-1.140044471	-2.4187936865	-0.371299
N	 0.2477068402	-0.7669782195	-1.5947766517	-0.366142
C	-0.0658408598	-2.1523716414	-1.3465188122	 0.374382
C	 0.6342355726	-2.7645167015	-0.1489809621	-0.448837
C	-1.4789933188	-2.5620167784	-1.6819284191	-0.325495
C	-0.3323158181	-3.0044124128	-2.5593922382	-0.261323
H	 0.7214950494	 1.7077312831	-2.1462928486	 0.114356
H	 2.2246177344	 1.46933002	-1.2323128542	 0.147627
H	 2.2595985136	 1.3970373226	-2.9954009867	 0.151785
H	-0.3706057062	-0.071740341	-1.2072516883	 0.239871
H	 0.3776976937	-2.2304645178	 0.7732141308	 0.105485
H	 0.3460389408	-3.8124992372	-0.0235786278	 0.112527
H	 1.7176897007	-2.7198329327	-0.2886510325	 0.149356
H	-1.9560316804	-3.2932326913	-1.038576013	 0.114692
H	-2.1482539509	-1.8031248259	-2.073359599	 0.108677
H	-0.2250436126	-2.5358146351	-3.529443779	 0.124133
H	-0.0198391604	-4.0417320026	-2.5211741955	 0.11743
