17
gdb 14915	4.54318	1.46696	1.18607	1.1385	70.67	-0.2169	0.0412	0.2581	1001.3897	0.143495	-363.816573	-363.809144	-363.808199	-363.848092	28.696	
C	 0.00752573	-1.1968108275	 0.0398489966	-0.419922
C	 0.0095130589	 0.0039687597	-0.0077232478	 0.289523
C	-0.0008182241	 1.4620721378	 0.0035061308	-0.151057
C	-0.7331677711	 1.9910236856	 1.2594386335	-0.081776
O	-0.7093884714	 3.4038455438	 1.2961605544	-0.24403
C	 0.6167215256	 3.9118502205	 1.3114934652	-0.072674
C	 1.3831652975	 3.4537962368	 0.0698291243	-0.163804
N	 1.3684880219	 1.9978598495	-0.105399196	-0.298391
H	 0.0048944323	-2.2586229088	 0.0595016234	 0.197379
H	-0.5544755452	 1.8288430875	-0.8727878829	 0.116562
H	-1.7847274338	 1.6911624696	 1.2529330079	 0.117117
H	-0.2528851714	 1.5670111657	 2.1577076131	 0.087885
H	 0.5301152008	 5.0022339962	 1.3517657868	 0.107354
H	 1.1403885543	 3.5720066437	 2.2227058018	 0.080676
H	 0.9227118966	 3.9064494921	-0.817839537	 0.113448
H	 2.4237530072	 3.7926716337	 0.1110718452	 0.103621
H	 1.9449097216	 1.5574218639	 0.6073383507	 0.218089
