23
gdb 109562	2.4453	1.23496	0.93954	2.6747	86.08	-0.2313	-0.0124	0.219	1370.6966	0.203787	-388.31525	-388.304807	-388.303863	-388.350626	38.333	
C	 0.0813739715	 1.6188545155	-0.1180831135	-0.38799
C	-0.0874836229	 0.0956709964	-0.0593968369	-0.202915
C	 0.7214108634	-0.5309158482	 1.0727005605	-0.08006
C	 0.7806568798	-2.0865227394	 1.3156844193	-0.062455
C	 0.4614892394	-2.9402048107	 0.0917022614	-0.394318
C	 2.315339916	-1.9557804738	 1.6480852951	-0.084049
C	 3.3487744517	-2.970359505	 1.1815242858	-0.415281
C	 2.2526441551	-0.584560324	 0.9616963383	 0.374644
O	 3.0666997166	 0.0861859556	 0.3886382264	-0.314824
H	 1.1325850166	 1.8824364268	-0.2606448865	 0.147633
H	-0.4964332151	 2.0466359278	-0.9430906386	 0.109403
H	-0.2623803351	 2.0904388636	 0.809567248	 0.109209
H	-1.1471110855	-0.1593006331	 0.0705019755	 0.096626
H	 0.2202933243	-0.3396616646	-1.0167807672	 0.103193
H	 0.468116888	-0.0374177553	 2.0212415114	 0.095376
H	 0.1760629262	-2.4195732547	 2.1628610263	 0.070856
H	 1.0486211333	-2.6428932829	-0.7840212624	 0.123657
H	 0.673810584	-3.9962344144	 0.2864538414	 0.117713
H	-0.5959046937	-2.8578381578	-0.1787394204	 0.119294
H	 2.4231532114	-1.7817072896	 2.7268873653	 0.099733
H	 3.259219154	-3.1758527891	 0.1113819413	 0.124105
H	 4.3572129523	-2.5843924722	 1.3580471131	 0.133735
H	 3.2500604386	-3.918590391	 1.7195553365	 0.116715
