14
gdb 15938	3.57821	2.0024	1.57271	1.9482	58.07	-0.2584	-0.0524	0.2061	804.7587	0.106152	-419.630286	-419.623433	-419.622489	-419.661647	24.784	
O	-0.756834413	 1.0963077919	 0.6679088694	-0.248901
C	 0.1992114528	 0.8365532045	-0.0189909207	 0.083781
C	 1.3947606828	 1.7320522714	-0.1407097585	 0.283152
C	 1.7384257186	 2.7222117392	 0.9856016675	-0.122019
O	 1.9013237719	 3.8145494253	 0.0409080508	-0.282492
C	 1.5233574648	 2.9885659201	-1.0599468951	 0.024143
C	 2.6912061299	 2.2182680671	-1.6975927181	-0.103215
O	 2.5286177697	 1.1156110352	-0.7642988352	-0.332086
H	 0.2628979868	-0.086807205	-0.6339639228	 0.09675
H	 0.900511441	 2.9060382664	 1.6655146441	 0.133775
H	 2.6554435437	 2.4961079287	 1.5375218962	 0.121687
H	 0.7488448867	 3.4276465382	-1.6907707375	 0.106858
H	 2.5237103928	 1.8874478459	-2.7296114955	 0.114369
H	 3.6654861316	 2.7085630509	-1.6087265445	 0.124198
