19
gdb 38019	3.46948	1.61381	1.29531	0.2016	85.38	-0.2179	0.022	0.2399	1010.833	0.162577	-348.755056	-348.748371	-348.747426	-348.785813	28.312	
C	 0.0657288	 1.5353988619	 0.0904745322	-0.280644
C	 1.3726234288	 0.7690606363	-0.0204586214	-0.06629
C	 1.978500154	 0.4476715921	 1.3095610789	-0.222186
C	 1.2099502515	-0.4016118629	 1.9921450263	 0.292243
C	 0.9862101129	-0.6920260481	 3.4532420421	-0.364304
C	-0.5391537189	-0.7191934937	 3.4827095297	-0.067736
C	-1.0788706891	-0.7768283494	 2.2608098989	-0.085833
C	-0.0079202566	-0.8508358694	 1.1897636965	-0.095517
C	 0.0317174225	 0.036958799	-0.0513232422	-0.068966
H	-0.1782665069	 1.9802782935	 1.0497749399	 0.112247
H	-0.2551248429	 2.1095880949	-0.7728521549	 0.10574
H	 1.9837084937	 0.8965373644	-0.9075511412	 0.082513
H	 2.8428542321	 0.974079774	 1.7003573112	 0.088614
H	 1.394500404	-1.6648638743	 3.7689189653	 0.111673
H	 1.4211736624	 0.0616183287	 4.118949128	 0.111245
H	-1.0967673454	-0.72164002	 4.4133328479	 0.092198
H	-2.1407858806	-0.8379317193	 2.0500851037	 0.092978
H	 0.0862134385	-1.8999250065	 0.8614744097	 0.081823
H	-0.3383230298	-0.3683363212	-0.9854712907	 0.080204
