21
gdb 119361	3.00899	1.04771	0.9204	2.8222	83.48	-0.2351	0.0155	0.2505	1384.4502	0.18227	-387.070381	-387.061364	-387.06042	-387.104716	33.813	
C	-0.0118505296	 1.565415658	-0.0057793633	-0.381711
C	-0.0013827112	 0.035185933	-0.0075155107	-0.172638
C	-1.4128015534	-0.5702142045	 0.0380075213	-0.33494
C	-1.4065329055	-2.074069785	 0.0081705637	 0.218009
C	-0.7620528119	-3.0857530476	 1.0325610217	-0.264335
C	-1.4008969082	-4.0320109343	-0.0378006158	-0.173264
C	-2.6305664868	-3.0636761629	-0.0027457909	-0.283663
C	-0.8284006469	-3.0319004281	-1.0516285699	 0.43765
O	-0.2487384191	-2.9986550734	-2.094434743	-0.339968
H	 1.0044641748	 1.9698475744	-0.0366090496	 0.11372
H	-0.5528149347	 1.95837069	-0.8737196742	 0.116765
H	-0.5000188264	 1.958402352	 0.893278058	 0.112045
H	 0.5132128067	-0.3340416561	-0.9022932295	 0.124159
H	 0.5753859271	-0.3288728033	 0.8523219284	 0.096937
H	-1.9403729069	-0.2196242598	 0.9354667481	 0.098185
H	-1.9929755656	-0.2053599271	-0.820266347	 0.10706
H	 0.3251956394	-3.0910023759	 1.1302765496	 0.112132
H	-1.2589660778	-3.109577685	 2.0060659544	 0.104359
H	-1.4056448531	-5.1189726672	-0.050069259	 0.094092
H	-3.1940032262	-3.0873026152	 0.9338057244	 0.104598
H	-3.2893982648	-3.044722502	-0.8735005864	 0.110809
