19
gdb 111138	3.16669	1.2057	0.97771	3.0931	72.06	-0.2385	0.0612	0.2997	1231.3986	0.156423	-460.075913	-460.066692	-460.065748	-460.110275	34.867	
C	-0.2097698989	 1.3237463135	 1.5803104682	-0.479192
C	-0.2028604666	-0.0444246214	 0.9236635115	 0.430134
O	-1.5022301012	-0.4569750138	 0.5674338893	-0.472747
C	 0.8777655277	-0.3500868473	-0.1525028514	-0.030454
O	 1.8922466035	-0.2876409609	 0.9227504456	-0.308131
C	 0.8024229098	-1.1220579126	 1.4751989507	-0.053424
C	 0.7663867398	-1.8787522857	 0.1179308799	 0.056256
C	-0.3731598335	-2.7795037781	-0.3590849028	-0.127792
O	 0.2338050374	-3.9864566903	-0.8151242445	-0.432404
H	 0.8039512599	 1.645098694	 1.8168875724	 0.150618
H	-0.6781271856	 2.0574362086	 0.9163744887	 0.124305
H	-0.7906584845	 1.2970513433	 2.5116151944	 0.105458
H	-2.0980319453	-0.2310676893	 1.2887220008	 0.283267
H	 1.0955723106	 0.1787667486	-1.0821209348	 0.089681
H	 0.9334412017	-1.5109145742	 2.4870692097	 0.085357
H	 1.7197912249	-2.3736726256	-0.0756086983	 0.105324
H	-1.0820040036	-2.9763157233	 0.4554628611	 0.090016
H	-0.9404280433	-2.2921655935	-1.1631247484	 0.10097
H	-0.465359203	-4.5670436122	-1.1298788222	 0.282759
