18
gdb 54201	2.70717	1.53341	1.24017	3.2216	71.64	-0.2334	0.0281	0.2614	1052.5736	0.147405	-439.088084	-439.079552	-439.078608	-439.121002	33.385	
N	 0.068621459	 1.1835344669	 0.6309531243	-0.531073
C	 0.0996520114	 0.0495434533	-0.1129784394	 0.387228
O	 1.1006585355	-0.3680994641	-0.6707961567	-0.380827
C	-1.2191484665	-0.7248426457	-0.1621381409	 0.309548
O	-2.2699266068	 0.1618037089	 0.1984817796	-0.50118
C	-1.5003554022	-1.5359434177	-1.4716750361	-0.280147
C	-1.5987324063	-2.8254727423	-0.6388293232	-0.057474
C	-0.3048958292	-3.0646815312	 0.0803030763	-0.282449
C	-1.2639287304	-2.0459053563	 0.6368844538	-0.128001
H	 0.893037587	 1.76002688	 0.6590789377	 0.257769
H	-0.813334974	 1.5372471167	 0.9599110177	 0.272151
H	-3.0505368446	-0.3687476916	 0.3899817995	 0.282386
H	-2.4491700429	-1.2103613426	-1.9044664887	 0.100609
H	-0.717401735	-1.5112123991	-2.2322711282	 0.121908
H	-2.3321123002	-3.6097283638	-0.7804806984	 0.084995
H	-0.2539276465	-3.9863035591	 0.6517515849	 0.109645
H	 0.6344371078	-2.7353304864	-0.3503703875	 0.150322
H	-1.672725826	-2.1152487859	 1.6395002053	 0.084591
