15
gdb 597	8.50794	2.06188	2.01331	2.7069	54.01	-0.2447	0.0883	0.333	666.2034	0.131706	-287.651399	-287.644917	-287.643972	-287.681656	23.25	
O	 0.2005292053	 1.2460163776	-0.2463052355	-0.423124
C	-0.0092064227	-0.1172331752	 0.0558958897	-0.044384
C	-1.497938295	-0.4238026784	 0.2079645642	-0.151705
N	-2.1804197132	-0.0260866625	-1.0221603496	-0.075281
C	-2.4145922825	-1.0692265653	-2.0175759633	-0.21912
C	-3.5398379204	-0.5099076961	-1.2181070449	-0.219349
H	-0.4798264027	 1.4664872867	-0.8967862007	 0.286627
H	 0.4187512956	-0.7732763457	-0.72187611	 0.081535
H	 0.5166300511	-0.3330947779	 0.9923095426	 0.103197
H	-1.6520022955	-1.4890888543	 0.4550538288	 0.079588
H	-1.9083409832	 0.1779229246	 1.0270765633	 0.112323
H	-2.2767240432	-0.7779126188	-3.0545774895	 0.121448
H	-2.0873382699	-2.0799497339	-1.7795576561	 0.113889
H	-3.966573605	-1.1479352355	-0.4461042371	 0.113353
H	-4.2362192987	 0.1958074147	-1.6619968219	 0.121002
