17
gdb 30349	3.04376	1.57672	1.08795	2.149	74.	-0.2059	0.0201	0.2261	1083.4697	0.137979	-421.845275	-421.837888	-421.836943	-421.877249	28.603	
C	-0.0427925005	 1.5796357567	-0.0597363031	-0.399212
C	-0.0009310238	 0.0528676633	 0.0502020109	-0.164421
C	 0.7968259337	-0.6192763916	-1.1189690896	-0.103805
O	 1.5327043767	-1.7514857082	-0.5888668678	-0.285337
C	 1.597295915	-1.5520835661	 0.7518503995	 0.280675
C	 2.2545070121	-2.0844032428	 1.8100742411	-0.161913
O	 1.8395453061	-1.4116202768	 2.9405489275	-0.160896
C	 0.9300953512	-0.4676524376	 2.5652391114	-0.154705
C	 0.7482786929	-0.5136635109	 1.223240612	 0.18234
H	 0.9677460969	 1.9991847853	-0.0334995018	 0.124592
H	-0.5214182859	 1.8940554206	-0.9934193312	 0.118027
H	-0.6112092236	 2.0152758274	 0.7672572278	 0.123532
H	-1.0308194475	-0.3282429586	 0.0471752666	 0.09817
H	 0.1589151724	-0.9889622773	-1.9245778906	 0.118864
H	 1.5200704574	 0.0929960367	-1.5377259369	 0.110064
H	 2.9793084168	-2.8640232361	 1.9575395184	 0.137476
H	 0.52761078	 0.1304476462	 3.3658722556	 0.13655
