20
gdb 97440	4.26255	0.61661	0.55645	0.7215	81.6	-0.2511	-0.0313	0.2199	1988.2084	0.166937	-440.290797	-440.27989	-440.278946	-440.328598	36.677	
C	 0.0730477011	 1.3882814757	-0.0497239882	-0.315165
N	-0.1078983255	-0.0480202185	-0.059978657	-0.205774
C	 0.5802452332	-0.7112749614	-0.8762218327	 0.132396
O	 0.4636017672	-2.0539428312	-0.9415934865	-0.215669
C	 1.2955229074	-2.7066474004	-1.9018836159	-0.072939
C	 0.9757660805	-4.1955490372	-1.8446338058	-0.102398
C	-0.4840589107	-4.5139562997	-2.2167843697	-0.407013
C	 1.9245243673	-4.9868807133	-2.7196283515	 0.152537
O	 2.8088760037	-4.5096897386	-3.3852311704	-0.245658
H	 0.8134011353	 1.7534508654	-0.7805534882	 0.096457
H	-0.884140648	 1.8809127112	-0.2555512596	 0.128119
H	 0.3878470507	 1.7122213497	 0.9488893469	 0.128479
H	 1.3089456805	-0.2822216521	-1.5822796967	 0.076995
H	 1.1008722391	-2.3142011887	-2.9084839169	 0.117372
H	 2.3537482592	-2.53432176	-1.6745667683	 0.123114
H	 1.1411988273	-4.5460902041	-0.8141783722	 0.116602
H	-0.7049738377	-4.1947212712	-3.2409907718	 0.127557
H	-0.684744201	-5.5872730708	-2.1446955556	 0.122885
H	-1.1606250378	-3.9888568463	-1.5404466122	 0.157031
H	 1.7391649881	-6.0856109988	-2.7150061276	 0.085071
