15
gdb 61728	2.52683	0.80215	0.62752	4.3086	82.49	-0.2848	-0.0594	0.2254	1680.8648	0.110648	-416.787232	-416.777642	-416.776698	-416.823148	32.464	
C	-0.0407952502	 1.9648518869	 0.112600334	-0.395778
C	-0.1388474183	 0.4616288884	-0.1499190908	-0.093351
O	 0.415575016	 0.2268041621	-1.447872024	-0.177092
C	 0.1163639812	-0.9595095503	-2.0340740759	 0.132097
N	 0.613582224	-1.2358127172	-3.1564388929	-0.426275
C	 0.5635718296	-0.3213478483	 0.8711106689	 0.208471
C	 1.139379652	-0.9683461869	 1.7128218948	-0.043291
C	 1.7891328296	-1.6979240242	 2.6673215415	 0.217704
N	 2.3375555485	-2.3188897884	 3.4812038062	-0.327108
H	 1.0037703024	 2.2818213174	 0.0888543091	 0.155162
H	-0.592321184	 2.4997467923	-0.663567048	 0.144796
H	-0.464960937	 2.2062688602	 1.0898148756	 0.140409
H	-1.1965611314	 0.1592091718	-0.1449014578	 0.127822
H	-0.5685885421	-1.5825078427	-1.4437430802	 0.098559
H	 0.2849552596	-2.1453181212	-3.4738287004	 0.237875
