13
gdb 6641	8.14016	0.78996	0.73398	4.0564	75.98	-0.2411	-0.0128	0.2283	1443.2022	0.092873	-361.440518	-361.431622	-361.430678	-361.475599	30.665	
N	-0.1210425613	 1.3491458815	 0.2232197667	-0.525722
C	 0.0804150535	 0.0647529278	-0.1947224135	 0.429326
O	 1.146609503	-0.3461978559	-0.5888012131	-0.331092
C	-1.2067686173	-0.7917407258	-0.1838000942	-0.526907
C	-0.9526084106	-2.216435344	-0.1017177283	 0.447693
C	-0.7653886222	-3.408272805	-0.0272338438	-0.264289
C	-0.5508308175	-4.7491147457	 0.0584542737	 0.298769
C	-0.3645749173	-5.9395976199	 0.1354593622	-0.554091
H	 0.6796914381	 1.9585759286	 0.265119654	 0.267054
H	-0.9696706061	 1.6437132692	 0.6732188536	 0.26083
H	-1.8658564847	-0.4776117799	 0.6359055384	 0.138589
H	-1.7470638442	-0.5603565895	-1.1127756379	 0.169137
H	-0.1952747635	-6.9855281613	 0.2009319023	 0.190703
