18
gdb 96609	2.77128	1.21909	0.87177	3.2298	83.95	-0.2297	-0.0377	0.192	1325.7723	0.147431	-398.12366	-398.114251	-398.113307	-398.158557	32.6	
C	-0.0205392977	 1.3900060003	-0.094426808	-0.339665
N	 0.0261966442	-0.0545703585	-0.0565947829	-0.298416
C	 0.5154144405	-0.671373155	 0.9472042659	 0.280913
C	 1.1133118191	-0.021180329	 2.1108106556	 0.244278
N	 1.5973287627	 0.5122264945	 3.0156024789	-0.345117
N	 0.4949618033	-2.0355310995	 1.0377482353	-0.101159
C	 0.2540430999	-2.948266019	-0.0857373504	-0.160796
C	 1.0621789125	-4.0334273033	 0.6788260281	-0.239868
C	 1.4467350445	-2.9368219685	 1.7121010426	-0.174819
H	 0.4844034503	 1.7416263335	-1.0016519799	 0.131436
H	-1.0646079852	 1.717411971	-0.1697662855	 0.132347
H	 0.4357970889	 1.8877251132	 0.7726059763	 0.1282
H	-0.8036812484	-3.1534849667	-0.2727514305	 0.123788
H	 0.7118278868	-2.5970313911	-1.0177161548	 0.123476
H	 0.4452220968	-4.8297250766	 1.0963033777	 0.122763
H	 1.8953800907	-4.4739924102	 0.1321403047	 0.120899
H	 2.4891089202	-2.6033195692	 1.6481645599	 0.123333
H	 1.2040507908	-3.140057946	 2.7590515071	 0.128406
