15
gdb 24188	3.02049	2.49163	1.55117	3.2321	77.22	-0.1937	-0.0431	0.1506	815.701	0.116288	-379.617964	-379.612172	-379.611228	-379.647802	24.06	
C	-0.1873467865	 1.5000432103	-0.0805062123	-0.332068
C	 1.3703420913	 1.8104726886	 0.0958790665	-0.046237
C	 2.1656437193	 1.9421403623	 1.3931210013	-0.124063
C	 2.723063565	 0.7560644612	 1.7473394611	-0.105705
C	 2.1848816637	-0.3255964258	 0.8998082669	-0.015529
C	 1.2663707192	-1.3561014953	 1.1421332498	-0.080196
N	 0.0513944712	-1.1043365466	 0.5136712606	-0.269321
C	 0.2679699591	 0.0118734542	-0.1637303121	 0.170854
N	 1.57908029	 0.3774715715	-0.1340968455	 0.067623
H	-0.785827179	 1.67608367	 0.8120604022	 0.152535
H	-0.6625819259	 1.95483613	-0.951902346	 0.128128
H	 1.7704694776	 2.464145874	-0.6879166757	 0.109228
H	 2.3816110382	 2.8938625875	 1.8633647581	 0.109259
H	 3.3723785868	 0.6096381447	 2.6007392597	 0.119405
H	 1.37318662	-2.2125498466	 1.7914338354	 0.116087
