16
gdb 27480	2.0118	1.82904	0.96379	3.3677	76.73	-0.2236	-0.0277	0.196	1167.5877	0.126479	-434.152214	-434.144125	-434.143181	-434.184924	30.645	
C	 0.0842951254	 1.5001677104	 0.0682124448	-0.493496
C	-0.0445353168	 0.011088915	-0.0565801331	 0.409908
C	 0.1010540007	-0.6682897584	-1.2174928008	-0.348276
C	-0.0386287144	-2.11388369	-1.2525306353	 0.442213
O	 0.0687198052	-2.8269012558	-2.230903357	-0.381727
N	-0.3292878239	-2.6864504261	 0.0022811788	-0.427955
C	-0.4873040008	-2.0346955929	 1.2141906692	 0.460555
N	-0.7499251991	-2.5335027109	 2.3594184327	-0.575419
N	-0.3276451465	-0.6571076718	 1.1074045386	-0.390624
H	 0.8884131942	 1.7634985334	 0.764927516	 0.148137
H	 0.3038729742	 1.9499599942	-0.9001875194	 0.151883
H	-0.8426394031	 1.9395371924	 0.4542843959	 0.147852
H	 0.3235895189	-0.1626632438	-2.1452396917	 0.115673
H	-0.4294538061	-3.6911913376	-0.0090866269	 0.257839
H	-0.8452674709	-3.5450239734	 2.3187807907	 0.214193
H	-0.4382109072	-0.1605257147	 1.9775379776	 0.269244
