20
gdb 15010	4.0495	1.41484	1.12285	2.6143	71.13	-0.2542	0.0835	0.3378	1086.7798	0.179162	-386.15314	-386.145316	-386.144372	-386.185168	30.304	
O	 0.0253214257	 1.4092657374	 0.1227934512	-0.428005
C	 0.0439302322	 0.0039219102	-0.0144683733	-0.067843
C	-1.3659638199	-0.5746751173	-0.0330600577	 0.114192
C	-1.4108130685	-2.0997757463	-0.1476157298	-0.203555
C	-2.8540955257	-2.606546808	-0.0058006392	-0.209898
C	-3.4976990955	-2.0328164746	 1.2650539676	-0.193222
C	-3.3332902253	-0.5123973179	 1.2982149312	-0.065658
O	-1.9691962698	-0.1366240824	 1.1864025196	-0.276656
H	-0.5904184785	 1.586366234	 0.8445362015	 0.28823
H	 0.5511624121	-0.2257410786	-0.9575620523	 0.103613
H	 0.612106268	-0.474855419	 0.8003963683	 0.086085
H	-1.9177116268	-0.1258764923	-0.8782335793	 0.067758
H	-0.9820498416	-2.4104205183	-1.1073560136	 0.096851
H	-0.7856630556	-2.5311760999	 0.6447859734	 0.101375
H	-3.4367249407	-2.2898112861	-0.8816264712	 0.097282
H	-2.8782991379	-3.7011569525	 0.0074779651	 0.097399
H	-4.5616098529	-2.2903414428	 1.3188378861	 0.095152
H	-3.0132844354	-2.4584224597	 2.1525033106	 0.104155
H	-3.916093714	-0.0528821515	 0.4812278384	 0.087315
H	-3.6896306298	-0.0909591443	 2.2428930733	 0.105431
