20
gdb 40535	4.46731	1.03249	0.96412	1.3306	86.56	-0.2114	0.0211	0.2325	1289.3016	0.173331	-365.983533	-365.975786	-365.974842	-366.016101	30.807	
C	 0.2942666889	 1.4953035567	 0.0439705846	-0.243985
N	 1.2752372036	 0.4196439614	-0.1352399012	-0.315471
C	-0.1521236243	 0.0700073216	 0.0697376879	-0.131466
C	-0.5080691226	-0.645378351	 1.3098599595	 0.380667
C	-1.4595549954	-1.5817603095	 1.4273790405	-0.210739
C	-1.5017030741	-2.1767767171	 2.7920670655	-0.064843
C	-0.2420164979	-2.9186613962	 3.2033485883	-0.275434
C	-0.399733087	-1.4646102447	 3.5626140937	-0.040428
C	 0.2043586777	-0.4132674486	 2.6329231886	-0.331036
H	 0.391175135	 2.0501390012	 0.9725462172	 0.120386
H	 0.0037307892	 2.0984016107	-0.8127030378	 0.111315
H	 1.5139963798	 0.3220379317	-1.1184088415	 0.233358
H	-0.7058124989	-0.2589067254	-0.807822262	 0.077943
H	-2.1001801692	-1.9170087265	 0.6182563586	 0.08262
H	-2.4480737781	-2.4557743454	 3.2425995863	 0.081243
H	-0.3233721756	-3.6342471807	 4.0155206112	 0.105056
H	 0.4569259015	-3.197486974	 2.4208817092	 0.110866
H	-0.5283295366	-1.2173508379	 4.6096937463	 0.081406
H	 1.2904393713	-0.5063313935	 2.5218180599	 0.128517
H	 0.0173261827	 0.6016639172	 3.0101598354	 0.100025
