19
gdb 92663	2.98104	1.50443	1.19835	2.4308	70.53	-0.2498	0.0761	0.3258	1060.8069	0.161668	-460.148834	-460.141361	-460.140417	-460.18066	29.925	
O	 0.0573237285	 1.3838509351	-0.1785289857	-0.437122
C	 0.0038201305	-0.0043755576	-0.0562209873	 0.161407
C	 0.3488311558	-0.6912644169	 1.2987048479	-0.292782
C	-0.8139752751	-1.6883785152	 1.029661209	-0.025047
C	-1.7561906293	-2.0755138099	 2.1597976088	-0.117506
O	-2.4901143697	-0.9459171644	 2.6244868674	-0.226917
C	-3.1522401782	-0.316081964	 1.5670769119	 0.016356
O	-2.2633001957	 0.2744426501	 0.648716159	-0.274534
C	-1.4001223561	-0.6666593347	 0.0112201905	 0.046245
H	-0.6838956474	 1.7211551583	 0.3416535417	 0.28954
H	 0.5942160016	-0.4313994765	-0.872610356	 0.088318
H	 1.3536934765	-1.0993062548	 1.4228242353	 0.099484
H	 0.1167919841	-0.0322422445	 2.1390152687	 0.116683
H	-0.4619284512	-2.58508167	 0.5111783972	 0.080555
H	-2.4607231188	-2.8520879017	 1.8171300321	 0.092383
H	-1.2114438408	-2.4673624832	 3.02366736	 0.116558
H	-3.8063477054	-1.0380579069	 1.0431020602	 0.078846
H	-3.7473495791	 0.4948802883	 1.9911471496	 0.120274
H	-1.8689941701	-1.0399619514	-0.9076246704	 0.067258
