20
gdb 22086	3.52392	0.99099	0.94099	1.1093	78.15	-0.2394	0.0108	0.2502	1319.5406	0.169454	-440.266455	-440.25713	-440.256186	-440.300159	36.089	
C	 0.6774737338	 1.2299997612	 0.0730159325	-0.432232
C	-0.1291491348	-0.0725078845	 0.0344952112	 0.384154
O	-1.5219353649	 0.2102434022	-0.0302483355	-0.478656
C	 0.2269010971	-0.9390123696	-1.1938080785	-0.248714
C	 1.481975611	-1.7378080701	-0.7912795487	-0.305819
C	 1.4458349146	-1.7549678422	 0.72423369	 0.413676
C	 0.2369085015	-1.0034090157	 1.2206571066	-0.342623
N	 2.2997654312	-2.2610734309	 1.5197841142	-0.234422
O	 3.3352953597	-2.8985561419	 0.8061709006	-0.397329
H	 1.7550746993	 1.0378687964	 0.0902595883	 0.126984
H	 0.4469254257	 1.8442265655	-0.8021914162	 0.124266
H	 0.4370293638	 1.807795142	 0.9740303937	 0.106829
H	-1.732901816	 0.837952836	 0.6689484087	 0.274939
H	-0.617752593	-1.6109200408	-1.3750485338	 0.114685
H	 0.3666494011	-0.3379468289	-2.095757496	 0.100908
H	 1.502131723	-2.7521633476	-1.2007857373	 0.12989
H	 2.4125263459	-1.2637719432	-1.1239315478	 0.129015
H	 0.4186093689	-0.4840355691	 2.165139764	 0.107575
H	-0.6039194607	-1.69296745	 1.3698680969	 0.122037
H	 3.9021303628	-3.2170285189	 1.516324947	 0.304838
