21
gdb 119530	4.04717	0.92326	0.84131	1.3531	83.34	-0.2248	0.0234	0.2482	1419.2265	0.18308	-387.08374	-387.074955	-387.074011	-387.11741	33.83	
O	-0.1318432446	 1.4636835109	-0.131048221	-0.420274
C	-0.0242774623	 0.0499555479	-0.2120005472	-0.068681
C	-1.3631046904	-0.5442827831	 0.2171460523	-0.28584
C	-1.384644085	-2.0555536453	 0.1682215053	 0.362302
C	-1.6736355804	-2.7464556986	-1.1434445938	-0.320146
C	-2.6798624588	-2.8391282511	-0.0097311412	-0.137643
C	-2.544001089	-4.0451777823	 0.8554364921	-0.067224
C	-1.3647361151	-4.072863322	 1.4805272615	-0.087211
C	-0.5363476071	-2.8407615774	 1.1811856654	-0.328365
H	 0.7103811526	 1.8451086845	-0.3947513909	 0.284327
H	 0.2118635839	-0.2768609953	-1.2374625866	 0.086656
H	 0.7793360688	-0.3251227261	 0.442190655	 0.0859
H	-1.5875478883	-0.1943958675	 1.2328142262	 0.10349
H	-2.1429801408	-0.1344025603	-0.4352329329	 0.101189
H	-1.9265456311	-2.1075985953	-1.9845510807	 0.106221
H	-1.1274285504	-3.6472470522	-1.4056717719	 0.106934
H	-3.6388697607	-2.343649095	-0.1206377221	 0.084427
H	-3.3098531044	-4.8098203453	 0.921426095	 0.093167
H	-1.007711752	-4.8738669024	 2.1179471987	 0.090867
H	 0.456629049	-3.096573012	 0.7889503692	 0.106067
H	-0.3612996538	-2.2480185321	 2.0910925076	 0.103837
