15
gdb 50313	3.26848	1.45856	1.11058	6.7761	67.18	-0.2452	-0.0334	0.2118	1047.1931	0.113987	-453.969706	-453.962244	-453.9613	-454.002065	27.461	
O	-0.1614322879	 0.0252880815	 0.2158526961	-0.26745
C	-0.0138017926	 1.2153918933	 0.1618323978	 0.166096
N	 1.189006973	 1.8906537613	-0.0117707234	-0.145454
C	 1.2244397343	 3.3601673406	-0.0686295412	-0.178812
C	 2.705337501	 3.6908793021	-0.0241822163	-0.05522
N	 3.342768991	 3.1781943062	 1.1934092084	-0.325801
C	 3.4624126912	 2.4188078542	-0.0820732309	-0.181924
C	 2.4671401179	 1.2899198182	-0.1408448474	 0.488918
O	 2.6970253716	 0.1228481298	-0.2935187272	-0.328466
H	-0.8534245274	 1.9358740462	 0.2500302726	 0.080483
H	 0.7731045345	 3.7218573386	-1.0000174189	 0.126698
H	 0.6869965363	 3.7973709855	 0.7785262183	 0.137761
H	 3.0612400267	 4.6019296641	-0.4899629446	 0.112928
H	 4.2194151571	 3.6715048021	 1.3505524997	 0.246884
H	 4.4261670632	 2.2873937265	-0.556193873	 0.12336
