18
gdb 120473	2.70275	1.07964	0.88067	2.6253	70.51	-0.2393	0.0263	0.2656	1336.1014	0.146488	-476.226606	-476.216855	-476.21591	-476.262406	33.848	
O	-0.2274246842	 1.5063489297	 0.2523294352	-0.414565
C	 0.0354916934	 0.1346658895	-0.0045830791	-0.074489
C	-1.3070907211	-0.5718140398	-0.1600522292	-0.168557
N	-2.0472429912	-0.1478869318	-1.3232831336	-0.081037
C	-2.6600505391	 1.1349773407	-1.7056505172	-0.173117
C	-3.1086436578	 0.4465696179	-3.022850786	-0.01503
O	-2.5821200288	 1.0374023631	-4.1846998102	-0.432408
C	-2.3434092029	-0.7954327793	-2.4923931768	 0.370257
O	-2.0674628538	-1.8899398509	-2.9190158519	-0.388607
H	 0.608087572	 1.9821593939	 0.2566494625	 0.292938
H	 0.6255829091	 0.0008100657	-0.9230266844	 0.105257
H	 0.5878772191	-0.3317103108	 0.82657982	 0.09321
H	-1.1447871592	-1.6490200673	-0.2648479237	 0.138018
H	-1.9035523016	-0.3992296275	 0.7452388525	 0.119465
H	-3.4599390099	 1.4636751896	-1.034666555	 0.108746
H	-1.9395628571	 1.9401928286	-1.8578616932	 0.130591
H	-4.1940055589	 0.2890392768	-3.0905507859	 0.090825
H	-2.501153038	 0.3412034818	-4.8466165241	 0.298503
