20
gdb 100562	2.72167	1.10305	0.9834	3.4354	77.53	-0.2398	-0.0005	0.2392	1321.2836	0.168495	-440.269249	-440.259089	-440.258145	-440.305197	35.562	
C	 0.6268117837	 0.8709902741	-0.3154463038	-0.242292
O	-0.2932980549	 0.2009088613	 0.5212642385	-0.227128
C	 0.2996581143	-0.6305473771	 1.4887359937	 0.06234
C	-0.8390027846	-1.1695102639	 2.3549525867	-0.409314
C	 1.0640507603	-1.8016793972	 0.8359398139	 0.331422
O	 0.6666626771	-2.3729084459	-0.1532908393	-0.338678
N	 2.2941225921	-2.0903840754	 1.4235914911	-0.076103
C	 2.5249326088	-2.5952727584	 2.7659415077	-0.236044
C	 2.8238682271	-3.4241773543	 1.5493758643	-0.217556
H	 1.1906834249	 0.172207087	-0.9469627815	 0.127777
H	 0.0442480649	 1.534838343	-0.9581843611	 0.128128
H	 1.3377372193	 1.4759775168	 0.2688217129	 0.100915
H	 1.0100937026	-0.0553792566	 2.1051869037	 0.071022
H	-0.4618378392	-1.7696093862	 3.1880024084	 0.112941
H	-1.4119573672	-0.3318325329	 2.7601253476	 0.130706
H	-1.50198537	-1.7870532749	 1.7437909833	 0.147248
H	 3.3328473324	-2.1257063746	 3.320418832	 0.13036
H	 1.6622975257	-2.8794012162	 3.3630404101	 0.134281
H	 2.1527380723	-4.2448409968	 1.3103569128	 0.140017
H	 3.8542108904	-3.5592205817	 1.233643869	 0.129958
