19
gdb 52444	9.28815	0.42943	0.42421	3.4874	80.4	-0.2689	0.0066	0.2754	2439.9184	0.156169	-423.017785	-423.007317	-423.006373	-423.055334	35.631	
O	 0.3068210617	 0.0433081588	-0.3853894907	-0.272933
C	 0.3044089144	 1.2369638846	-0.3893914691	 0.170888
O	 0.8273892231	 1.9723359295	 0.6084931769	-0.173553
C	 0.8119040175	 3.3998192113	 0.4770536949	-0.096513
C	 2.2150848167	 3.928521555	 0.2025333627	-0.188514
C	 2.2562706908	 5.4586590127	 0.1524170906	-0.182236
C	 3.6758591462	 5.9968382769	-0.1181677838	-0.355907
C	 3.7288164536	 7.4524809347	-0.1697034805	 0.288373
C	 3.7435180379	 8.6536646638	-0.2073116417	-0.429293
H	-0.1284877371	 1.8594206855	-1.1983304633	 0.074856
H	 0.1173374298	 3.694589265	-0.3211146727	 0.112139
H	 0.4222694955	 3.7920372617	 1.4215357771	 0.128213
H	 2.8873043198	 3.5552313209	 0.9841865528	 0.120993
H	 2.5745373787	 3.5094210358	-0.7460403906	 0.108466
H	 1.5819634613	 5.8307548447	-0.628050151	 0.113996
H	 1.8934858605	 5.8762309498	 1.0989565922	 0.116439
H	 4.358106343	 5.6322446404	 0.660883804	 0.134519
H	 4.0487848389	 5.582905858	-1.0642420719	 0.133271
H	 3.7706845377	 9.7144692308	-0.2426343561	 0.196797
