20
gdb 111606	2.74952	1.51617	1.30251	0.7799	77.63	-0.2184	0.0652	0.2836	1075.346	0.172001	-403.102263	-403.094267	-403.093323	-403.135104	31.192	
C	 1.0666136044	 0.755928417	 0.8827441742	-0.373912
C	-0.0513006565	 0.3742639771	-0.0952855761	-0.214024
C	 0.4929399936	-0.3573875487	-1.30748061	 0.015551
C	 0.9432008883	-1.7810247368	-1.4029241887	-0.078604
C	 0.4967380726	-2.8456744765	-0.4362475084	 0.029878
O	-0.3914163557	-2.4313129918	 0.612717723	-0.249515
C	-0.9597972588	-3.0027560524	-0.5723512202	 0.036598
C	-1.4335233193	-1.9899089566	-1.609417415	-0.20415
N	-0.2435339481	-1.3024266607	-2.1662880886	-0.140732
H	 1.5157470902	-0.1390201691	 1.3236466034	 0.125999
H	 1.8615928964	 1.3213664188	 0.3834064168	 0.110673
H	 0.6792043734	 1.3753054798	 1.6973529525	 0.11187
H	-0.8009239185	-0.2154078189	 0.4274715315	 0.124774
H	-0.5433262484	 1.2856151864	-0.460581815	 0.092439
H	 1.0797255288	 0.3171465654	-1.9350350998	 0.089822
H	 1.8278477615	-2.0268013366	-1.9871507217	 0.086703
H	 1.1703282734	-3.6591288398	-0.1822703261	 0.101795
H	-1.4912451327	-3.9409669135	-0.4266147602	 0.1001
H	-1.9266851041	-2.5196290469	-2.4323727595	 0.113869
H	-2.1558543904	-1.2780673663	-1.195762572	 0.120865
