14
gdb 18561	3.80879	2.09695	1.66288	2.0904	56.72	-0.2392	-0.0453	0.1939	767.6318	0.107488	-419.671047	-419.664618	-419.663674	-419.702103	23.914	
O	 0.0392210813	-0.0140843751	-0.3495011084	-0.277075
C	 0.0105521851	 1.1438504083	-0.061202597	 0.364566
C	-1.1029140854	 2.1234106375	 0.362364743	-0.381451
C	-0.0115717649	 3.201905047	 0.6228797553	 0.068869
O	 0.3540465803	 3.3965149827	 1.9774913766	-0.252076
C	 1.3015330492	 2.3983220824	 2.3026567677	 0.004876
O	 2.0324141636	 2.1174171739	 1.1251926834	-0.239032
C	 1.1090374686	 2.2563765121	 0.0722503848	-0.022662
H	-1.7890996014	 2.3664834996	-0.4553065135	 0.14054
H	-1.6903971167	 1.8200335255	 1.233333115	 0.144318
H	-0.1653923075	 4.1759136946	 0.1600490506	 0.101054
H	 1.9849196483	 2.7841816808	 3.0627089448	 0.131822
H	 0.798280474	 1.4869434093	 2.6693371814	 0.100857
H	 1.6389754154	 2.5093678713	-0.8481679136	 0.115397
