20
gdb 118798	2.16537	1.10121	0.82518	4.0374	80.65	-0.2916	0.0001	0.2917	1459.7481	0.168395	-403.154308	-403.144127	-403.143183	-403.190135	36.309	
C	-0.0954172902	 1.5804822784	-0.142841293	-0.384646
C	-0.1930810239	 0.0581087679	-0.2699375991	-0.170532
C	 1.0609361635	-0.5547468952	-0.913006812	-0.260281
C	 0.9512180418	-2.0530409453	-1.1268456575	 0.39588
C	 0.9248113021	-2.9318810305	 0.1054490543	-0.464894
O	 0.0365118262	-2.4505539464	-2.1624472271	-0.268456
C	 1.4287665501	-2.667657138	-2.3938126903	-0.167627
C	 2.048620944	-1.8875714001	-3.4435042761	 0.308693
N	 2.5690471815	-1.2836569528	-4.2807220869	-0.334707
H	 0.7557833883	 1.8740031687	 0.4815701484	 0.115755
H	 0.0357644193	 2.0510553338	-1.1231251123	 0.124185
H	-0.999982091	 1.9975812003	 0.3096635368	 0.116443
H	-0.3589148471	-0.3790929075	 0.7219359967	 0.098786
H	-1.0641865707	-0.2102798614	-0.8788492458	 0.118591
H	 1.2433579629	-0.0684948353	-1.876594561	 0.128398
H	 1.9398570256	-0.3532982573	-0.286864288	 0.105669
H	 0.0719377188	-2.675925129	 0.740540881	 0.141694
H	 0.8365793848	-3.9856650113	-0.1688828613	 0.132929
H	 1.8374657012	-2.795696926	 0.6942248672	 0.132516
H	 1.7424003828	-3.710628823	-2.383256294	 0.131605
