16
gdb 46137	4.78243	1.04226	0.88688	2.6916	73.69	-0.2608	0.0073	0.2681	1251.6215	0.124047	-437.847137	-437.83896	-437.838016	-437.88015	30.511	
N	-0.0755675103	 1.2705474998	-0.3685083699	-0.505316
C	-0.0037235263	 0.0703449363	 0.0178849831	 0.374894
C	-1.2616960437	-0.7633143757	 0.1632751985	-0.157898
O	-1.1590429261	-1.798692209	 1.1249510986	-0.253461
C	-0.0098961412	-2.5981435317	 0.874606722	-0.084104
C	 1.2310540851	-1.7213990476	 1.0540368397	-0.083178
O	 1.1879858376	-0.5688757813	 0.2043293465	-0.253877
C	 0.0122615503	-3.7293774424	 1.7912359183	 0.288651
C	 0.0802196373	-4.660272561	 2.5462943415	-0.397558
H	 0.8608718006	 1.6662137085	-0.4777831616	 0.223696
H	-2.083658462	-0.1149389701	 0.4650060637	 0.152238
H	-1.5011200991	-1.1869427203	-0.8271853718	 0.120802
H	-0.0380119978	-2.9678549187	-0.1656703766	 0.106732
H	 1.2918007673	-1.4026626604	 2.1009941057	 0.130033
H	 2.1416343062	-2.2626025173	 0.7885864881	 0.131903
H	 0.1238287424	-5.487574929	 3.2114105443	 0.206444
