21
gdb 92578	2.61884	1.60499	1.33214	1.1033	83.67	-0.2378	0.019	0.2568	1069.4555	0.184169	-387.087898	-387.079891	-387.078947	-387.120172	31.974	
C	-0.3619364748	 1.4968012414	-0.1372895652	-0.393828
C	-0.0738802936	 0.0021941619	-0.0560731437	-0.001496
C	 1.1621155774	-0.4673013047	-0.8861032366	-0.249948
C	 1.9954741376	-0.5575877077	 0.4090667627	 0.107373
O	 2.775854398	 0.6179486914	 0.5488741966	-0.263984
C	 3.1102544516	 0.9189853736	 1.8924863958	-0.12274
C	 1.9090841338	 0.9546923829	 2.8016305372	-0.07659
C	 0.7736786379	 0.3387011345	 2.4769392192	-0.079079
C	 0.6859290017	-0.4902342994	 1.2373322095	-0.055135
H	 0.5416987788	 2.080910215	 0.054605908	 0.13173
H	-0.731594668	 1.7603364873	-1.1347586463	 0.107533
H	-1.1220010406	 1.7985561896	 0.5916057871	 0.106616
H	-0.989512529	-0.5614369602	-0.2576148626	 0.063741
H	 1.0167181362	-1.4447306335	-1.3532651018	 0.09624
H	 1.5513310055	 0.2322507972	-1.6295344719	 0.107122
H	 2.624465933	-1.4484528802	 0.5531079737	 0.056175
H	 3.8620392742	 0.2047544432	 2.2762073751	 0.097056
H	 3.5959773143	 1.9009136599	 1.8647761496	 0.114399
H	 2.0096638901	 1.5128482115	 3.7285375872	 0.091123
H	-0.0984252708	 0.402551974	 3.1234045254	 0.087488
H	 0.3457483067	-1.5017645778	 1.488470891	 0.076204
