14
gdb 7930	3.57606	1.92298	1.32813	3.3771	59.55	-0.2751	-0.0037	0.2714	881.835	0.10813	-415.928517	-415.921208	-415.920264	-415.960555	26.489	
C	-0.0702401916	 1.600181449	 0.0331338269	-0.390849
C	 0.0219637896	 0.0741735125	-0.0086734056	-0.060808
N	 0.863232873	-0.4517904114	-1.0673878405	-0.368044
C	 1.8522000078	-1.2757976428	-0.6267417118	 0.480829
O	 2.6706382326	-1.8943070452	-1.2379703884	-0.371058
O	 1.7775873425	-1.2946747838	 0.7716995917	-0.231335
C	 0.7329723778	-0.511424668	 1.2033039272	 0.415744
N	 0.4157087679	-0.3042471086	 2.4007211503	-0.522454
H	 0.9269616125	 2.0461593661	 0.0771778898	 0.132815
H	-0.5860242534	 1.9803853577	-0.8536770085	 0.121005
H	-0.629861067	 1.9019629156	 0.921286799	 0.156726
H	-0.9898978714	-0.3501331661	-0.059876463	 0.125842
H	 0.6861166393	-0.3529890104	-2.0519827282	 0.271651
H	 1.0369768205	-0.7988771745	 3.0418618111	 0.239936
