18
gdb 95197	2.16066	1.86128	1.37865	1.7789	72.32	-0.2316	-0.0303	0.2014	998.6285	0.14899	-439.075086	-439.067187	-439.066243	-439.107381	30.69	
O	-0.132817649	 1.4563207799	-0.163365803	-0.427994
C	-0.0089383042	 0.0391036775	-0.0228645545	 0.01008
C	-1.4113947249	-0.5587634412	 0.0460568402	-0.230365
C	-2.2181959303	-0.2426084374	-1.2181472584	-0.153701
N	-1.5337015706	-0.5877030072	-2.482944073	-0.099313
C	-0.7365902304	 0.4457473991	-3.1064215931	-0.241789
C	-0.0660359207	-0.7429965702	-2.4757468933	-0.115395
C	 0.7292340501	-0.5652074569	-1.2260156163	 0.368265
O	 1.883203465	-0.9285309195	-1.1447838044	-0.333181
H	 0.7558881948	 1.8285284486	-0.1587467167	 0.296522
H	 0.5735395863	-0.2135413932	 0.8725445568	 0.09001
H	-1.3128614897	-1.6442953031	 0.1668305663	 0.117683
H	-1.9385113736	-0.1794812163	 0.9279009554	 0.115089
H	-3.1573831275	-0.8049895824	-1.1942545501	 0.112133
H	-2.4769861724	 0.8205040525	-1.2268437587	 0.123074
H	-0.7801991044	 0.4960721255	-4.1915835831	 0.122372
H	-0.6383198495	 1.3978512523	-2.5915612285	 0.133738
H	 0.324964451	-1.521961518	-3.1250240756	 0.112774
