19
gdb 32566	1.94552	1.8776	1.03883	3.706	78.07	-0.1838	0.0468	0.2306	1175.8162	0.159639	-419.280511	-419.271142	-419.270198	-419.314995	34.203	
C	-0.0441859212	 1.5718979552	 0.0015347592	-0.379527
C	 0.0382313622	 0.0432281308	-0.0350019719	-0.153576
N	 0.7483835094	-0.4636396701	-1.1959885481	-0.148414
C	 0.0866008445	-0.6911018521	-2.4007556242	 0.457501
O	-1.1010706709	-0.5404561488	-2.6326258259	-0.455151
N	 1.0893111933	-1.1226608613	-3.2509447902	-0.365169
C	 2.3200605733	-1.1454563083	-2.5964774427	-0.184037
C	 2.1169393163	-0.7369168599	-1.3248669767	 0.296445
C	 3.0849088989	-0.5979952563	-0.2022174614	-0.501645
H	 0.9510544102	 2.026024766	 0.0367760129	 0.116724
H	-0.5619841102	 1.939263499	-0.888156688	 0.147407
H	-0.6009287104	 1.9001137506	 0.885040738	 0.116837
H	 0.524091837	-0.3427672827	 0.8660132047	 0.1077
H	-0.9694948417	-0.3787278039	-0.0803541367	 0.141965
H	 0.9091831761	-1.3581410098	-4.2100222155	 0.264916
H	 3.2274747245	-1.4547517392	-3.0855810867	 0.133924
H	 4.0865015412	-0.8673552488	-0.5460051005	 0.134844
H	 3.1282852073	 0.4270466967	 0.1850105075	 0.134271
H	 2.8353198101	-1.2531887173	 0.6414462764	 0.134985
