15
gdb 43957	3.65355	1.45544	1.4228	3.5602	65.63	-0.2648	-0.0147	0.2501	930.9666	0.113264	-457.669676	-457.663291	-457.662347	-457.700376	25.925	
O	-0.3013945065	 0.0226247418	-0.6502928897	-0.288629
C	-0.0952549104	 1.0744467925	-0.1576146988	 0.364336
O	-1.0724993415	 2.0093936072	 0.298002292	-0.315367
C	 0.001412158	 2.74053514	 0.9734779983	 0.328402
C	 0.8639145981	 4.0478351226	 0.9947934606	-0.328977
C	 1.9807301033	 2.9046037118	 1.175370273	 0.04493
O	 1.7173547061	 2.3838789615	 2.4526590531	-0.241699
C	 0.2913652574	 2.1806527719	 2.3828752329	-0.11689
C	 1.0516814105	 2.1028495544	 0.1329822573	-0.190014
H	 0.9185571797	 4.5788429542	 0.0465998288	 0.131242
H	 0.7574016908	 4.7286305473	 1.8421410691	 0.12071
H	 3.0435867425	 3.0793300849	 1.0228714574	 0.114099
H	-0.2137025103	 2.7233412467	 3.1877528491	 0.120325
H	 0.0622872996	 1.1118210055	 2.4605971949	 0.126588
H	 1.1343279427	 2.6379186076	-0.8183060181	 0.130943
