14
gdb 129002	3.96247	1.73829	1.20825	5.1213	81.32	-0.2095	-0.058	0.1515	938.092	0.106236	-395.770519	-395.764673	-395.763729	-395.800557	23.981	
N	-0.0874543631	 1.2783231077	 0.0099278354	-0.271341
N	 1.0573494237	 1.9611799719	 0.0025865133	-0.201794
H	 0.9254904511	 2.9613275927	 0.0092673867	 0.286676
C	 2.3167610629	 1.448478116	-0.01233597	 0.018096
C	 2.5160025352	 0.0905418244	-0.0216173014	-0.2822
C	 1.3722991168	-0.7211078983	-0.01499022	 0.324091
C	 1.0539015934	-2.0664756483	-0.0192102023	-0.336983
C	-0.3685719668	-2.1034546526	-0.0057002251	-0.013163
N	-0.9722930412	-0.9112528291	 0.0065067998	-0.329122
C	 0.0612216876	-0.0291371082	 0.0014178294	 0.343781
H	 3.1126896795	 2.1813195849	-0.0160420901	 0.138721
H	 3.5242976685	-0.3059328037	-0.033486326	 0.11888
H	 1.724627795	-2.9123205105	-0.0302621741	 0.097624
H	-0.9676736227	-3.008487087	-0.0048572358	 0.106733
