16
gdb 18195	4.28899	1.68612	1.40119	0.9542	69.08	-0.2354	0.0494	0.2848	891.729	0.130966	-346.55235	-346.545353	-346.544409	-346.58344	27.324	
C	-0.3678283317	-1.2040511248	-0.5251293667	-0.464456
C	-0.1631282377	-0.051669908	-0.2504950898	 0.328334
C	 0.0784227973	 1.33956411	 0.1027248946	-0.199532
C	-0.3250209029	 1.6682892569	 1.574756146	-0.106514
O	 0.507100266	 2.7412568574	 1.9920515105	-0.252115
C	 1.7086438931	 2.6672974482	 1.2673515629	 0.108154
C	 2.4402575034	 1.3521145175	 1.1899430133	-0.326692
C	 1.5373998456	 1.7999794413	 0.0549616785	-0.073181
H	-0.544918172	-2.2205611073	-0.7757527962	 0.196378
H	-0.4937301614	 1.9851382388	-0.5752592311	 0.110245
H	-1.3663833478	 1.98439797	 1.6697620105	 0.120803
H	-0.1745080031	 0.7829831168	 2.2053259618	 0.110771
H	 2.2419375708	 3.6101127626	 1.2732399578	 0.105192
H	 3.5088633685	 1.3922900701	 1.0089947042	 0.116842
H	 2.1278857807	 0.5272493118	 1.820940516	 0.126533
H	 1.9630961814	 2.0470583886	-0.9095411824	 0.099239
