20
gdb 60817	2.40491	1.29548	1.06785	2.5567	76.33	-0.2356	-0.024	0.2116	1217.2489	0.168576	-440.257161	-440.247496	-440.246552	-440.29203	35.438	
C	-0.1310642924	 1.6223149181	 0.1887069198	-0.424344
C	-0.0010464993	 0.0944104827	 0.1422328995	 0.029947
C	-1.3825241194	-0.570978738	-0.0186830325	 0.053533
O	-2.0739148894	-0.0846962674	-1.1379174226	-0.440035
C	-1.2081359351	-2.0761420995	-0.1347613886	 0.158561
O	-1.7191054504	-2.7025104681	-1.0313687437	-0.274544
N	 0.8659869464	-0.5057052949	-0.8801829706	-0.075626
C	 0.9705704985	 0.0778481794	-2.2104062855	-0.210878
C	 2.1268193177	 0.108485335	-1.2702989901	-0.238712
H	 0.8429067961	 2.1109957451	 0.2790481758	 0.117394
H	-0.644681215	 2.0054819894	-0.6953359969	 0.147966
H	-0.7218826214	 1.9105104735	 1.0639562382	 0.120748
H	 0.4046914554	-0.2470760609	 1.1051587449	 0.082878
H	-1.9637550375	-0.3824508401	 0.9034533164	 0.086591
H	-2.3000158927	-0.8731164722	-1.658294739	 0.294983
H	-0.6141665951	-2.5665766945	 0.6609017922	 0.096586
H	 0.9446491437	-0.6325609047	-3.0319063861	 0.120828
H	 0.4665395844	 1.018489031	-2.4101074709	 0.122926
H	 2.3969192762	 1.0733010891	-0.8475616063	 0.112483
H	 2.9595426493	-0.5793905829	-1.390019884	 0.118716
