17
gdb 97037	3.01024	1.28236	0.94228	4.0959	72.33	-0.233	-0.0434	0.1896	1220.0224	0.134538	-455.159789	-455.150546	-455.149602	-455.194201	32.941	
C	-0.0081146092	 1.4080533732	-0.1302505256	-0.339473
N	 0.0408345441	-0.0438231199	-0.1034027743	-0.294388
C	-1.0500411749	-0.6692666215	 0.0403481123	 0.364278
N	-2.335019292	-0.1739181102	 0.2409972512	-0.357381
C	-3.4035455337	-1.1363383608	 0.0234966681	-0.2699
C	-2.6285319593	-2.415030594	-0.2877117044	 0.35554
O	-3.0465153798	-3.4101443673	-0.8190113863	-0.309892
C	-1.1698427038	-2.1884990722	 0.0948742654	-0.025545
O	-0.2754526249	-2.8984179689	-0.7022437395	-0.416645
H	 0.9766549272	 1.7995054113	-0.396390826	 0.130013
H	-0.7289921983	 1.8006330714	-0.8671945381	 0.098608
H	-0.2767734368	 1.8299720415	 0.8506414583	 0.112111
H	-2.5142031255	 0.8130245071	 0.1660358342	 0.254479
H	-4.0397157757	-1.276784848	 0.9085151502	 0.14094
H	-4.0575599406	-0.8893068349	-0.821995437	 0.143753
H	-1.0801631263	-2.4752895584	 1.162091292	 0.117342
H	-0.7753151305	-3.6436716185	-1.0652566306	 0.29616
