18
gdb 93385	3.13467	1.37897	1.07414	3.724	72.09	-0.2376	0.0277	0.2653	1110.6259	0.14996	-439.113682	-439.105716	-439.104771	-439.146053	31.097	
O	-0.1382111906	 1.4738669271	 0.2031248804	-0.424857
C	-0.0126379266	 0.0690506996	 0.0268450434	 0.094277
C	 0.8519280597	-0.5332030291	 1.1491145561	-0.212274
N	 0.7948806694	-1.982654303	 1.1457049998	-0.324964
C	-0.3098592715	-2.7426839408	 0.8529113756	 0.41352
O	-0.2910154485	-3.9578951142	 0.9273880663	-0.387924
C	-1.5233406528	-1.9850764968	 0.4073415027	-0.141402
C	-2.1025775197	-0.8845755861	 1.2818384405	-0.291418
C	-1.3978852211	-0.5298068144	 0.0072502158	-0.027486
H	 0.7158753022	 1.8785536142	 0.019745642	 0.285736
H	 0.4658307623	-0.1573579452	-0.9387934501	 0.079914
H	 1.8935038894	-0.2254494517	 1.0057125261	 0.10443
H	 0.5213845481	-0.0982877166	 2.1030118877	 0.119132
H	 1.5778758335	-2.5093407488	 1.5020067595	 0.247338
H	-2.2244730615	-2.6168037505	-0.1231824751	 0.112355
H	-3.1825943466	-0.7998164223	 1.3065418662	 0.12425
H	-1.6222004241	-0.6740103455	 2.2300316265	 0.129088
H	-2.0128231615	-0.194657796	-0.8215726933	 0.100284
