19
gdb 54856	2.62916	1.55356	1.42069	3.2438	74.78	-0.2409	0.0461	0.287	1018.9853	0.162059	-419.241029	-419.233019	-419.232075	-419.273532	31.301	
N	-0.3160784216	 1.1915538312	-0.3208879289	-0.537333
C	-0.2096933367	-0.180619767	-0.1868839222	 0.408733
O	 0.7399455059	-0.8188442093	-0.5941513508	-0.384747
N	-1.288592942	-0.7433917793	 0.4972938668	-0.120457
C	-2.7016566365	-0.7084241227	 0.1414488811	-0.051785
C	-3.0784553939	-0.4081567592	-1.3009500648	-0.218285
C	-2.1862090848	-1.3419176813	-2.1574782424	-0.23463
C	-1.8080710233	-2.5334314889	-1.2432223979	-0.216737
C	-1.9273109474	-2.000396276	 0.175835297	-0.022276
H	 0.5529276977	 1.6506000844	-0.5465235841	 0.260377
H	-0.9077743302	 1.678971093	 0.3335890784	 0.256504
H	-3.3778640763	-0.4141335245	 0.9403294123	 0.090602
H	-4.141671011	-0.6455955806	-1.4271271999	 0.102904
H	-2.9475035088	 0.6455073352	-1.5655140528	 0.110052
H	-2.6984364162	-1.6692560982	-3.065425912	 0.095929
H	-1.2838940922	-0.8169725594	-2.477120103	 0.135627
H	-2.51722597	-3.3620904876	-1.3546895014	 0.097017
H	-0.8073243447	-2.9135670125	-1.4585810786	 0.134356
H	-2.011135348	-2.7023195673	 1.0009616432	 0.09415
