17
gdb 8132	4.10049	1.7295	1.44761	2.1018	67.9	-0.2287	-0.0239	0.2048	896.2578	0.141945	-363.870935	-363.863621	-363.862677	-363.902373	28.259	
C	-0.1234620801	 1.5368758495	 0.1486277625	-0.472267
C	 0.0079413245	 0.0446547174	-0.0228025766	 0.339831
C	-0.8231027287	-0.9004461474	 0.7697838479	-0.288548
N	 0.5951059975	-0.7209401419	 1.1200270167	-0.131351
C	 1.4494263318	-1.7767188981	 0.5770741332	-0.27291
C	 1.2963680613	-1.7793983777	-0.9531608983	 0.376799
O	 1.7090614697	-2.6190834343	-1.7070880025	-0.299223
C	 0.5401168399	-0.4995360681	-1.3357859119	-0.398365
H	 0.8239528681	 2.040904481	-0.0735936459	 0.11987
H	-0.8858729315	 1.9424254428	-0.5258978686	 0.12036
H	-0.4050309018	 1.7826789414	 1.1755902169	 0.130688
H	-1.5261703986	-0.520247424	 1.5055415885	 0.119236
H	-1.1249486282	-1.839452873	 0.3055161498	 0.112209
H	 2.498256028	-1.5643144199	 0.8214022693	 0.13625
H	 1.2103377432	-2.7596125358	 0.9947499286	 0.13681
H	-0.2262974674	-0.718141959	-2.0842684572	 0.137528
H	 1.2525555924	 0.1967761272	-1.7969149526	 0.133085
