17
gdb 12764	3.03042	1.91773	1.58152	1.6201	68.56	-0.2354	-0.0278	0.2076	880.207	0.141098	-363.82765	-363.819831	-363.818886	-363.859963	28.675	
C	 0.130586311	 1.5276601734	-0.062693551	-0.497046
C	-0.0103645393	 0.0363486866	-0.0888792037	 0.359391
C	-0.9674812253	-0.7209951108	 0.7407884019	-0.278853
N	 0.4712743935	-0.874244536	 1.0411232589	-0.163951
C	 0.9824813202	-1.8380467128	 0.01120287	-0.180302
C	 0.5961871151	-0.8714132421	-1.1582250827	-0.168694
C	-0.2686279876	-1.3852887527	-2.278126088	 0.138347
O	-1.4024618497	-1.0368469262	-2.493617771	-0.246174
H	 1.1608559611	 1.8346735889	-0.274276106	 0.119173
H	-0.5217679967	 1.9844328006	-0.8155734339	 0.13643
H	-0.1473166847	 1.9262627474	 0.9170758079	 0.131564
H	-1.4991015143	-0.1665155701	 1.5079291245	 0.121367
H	-1.5183855778	-1.5632398886	 0.329524851	 0.119942
H	 2.0576306175	-1.9860723011	 0.1201527828	 0.119312
H	 0.4806050839	-2.8116415146	 0.031266812	 0.111333
H	 1.5056768036	-0.4491885895	-1.6018577375	 0.102817
H	 0.2246198298	-2.1542868523	-2.9188069551	 0.075346
