22
gdb 121032	3.698	0.79699	0.68661	3.9985	83.92	-0.2352	0.038	0.2732	1690.923	0.19527	-404.412532	-404.402989	-404.402045	-404.447634	35.271	
C	 0.0086609826	 1.6162406011	 0.0894377931	-0.379218
C	 0.0141786948	 0.0914666256	-0.0527459402	-0.180763
C	-1.3917123077	-0.5173239085	 0.0155257362	-0.17144
C	-1.4267423662	-2.0445589948	-0.0646014819	 0.043064
C	-2.84996334	-2.6428246717	 0.0607089481	-0.231153
C	-2.80894777	-3.9232368347	-0.7861614829	-0.335999
C	-1.6834701385	-3.6748782581	-1.79627505	 0.403768
O	-1.4194380784	-4.3269614903	-2.7820265959	-0.379399
N	-1.0038008836	-2.5665829963	-1.3583012335	-0.30838
H	 1.0219603111	 2.025515149	 0.0352278119	 0.115532
H	-0.5833731642	 2.0846621958	-0.7043186047	 0.118619
H	-0.4242184759	 1.921629339	 1.048382351	 0.116521
H	 0.4889022421	-0.1762380224	-1.0060317241	 0.094599
H	 0.6391044258	-0.3494115715	 0.7352396118	 0.098656
H	-1.8664070724	-0.2194231915	 0.9603126615	 0.09779
H	-2.0136225746	-0.1097722491	-0.792175443	 0.100613
H	-0.7843067557	-2.4485759781	 0.7359371791	 0.073877
H	-3.1264887964	-2.8118753036	 1.1035956994	 0.10664
H	-3.5701444841	-1.9348077281	-0.3633949896	 0.110782
H	-2.5336468949	-4.8034449904	-0.1934304748	 0.128134
H	-3.7427986511	-4.1579598908	-1.2997714235	 0.129613
H	-0.1210225427	-2.3308790205	-1.7835604379	 0.248146
