10
gdb 21380	5.83027	2.43828	1.71926	7.1018	52.61	-0.2753	-0.0364	0.2389	651.9191	0.064224	-405.777661	-405.772665	-405.771721	-405.806683	18.837	
N	-0.0404042089	 1.3664197192	 0.0103965934	-0.397159
C	 1.2902367479	 1.7351252613	-0.0007592235	 0.070928
N	 2.1174141654	 0.721961911	-0.0145425947	-0.22654
N	 1.2608336191	-0.3431219464	-0.0120878955	 0.116749
N	 1.3593903735	-1.6901122082	-0.0205380609	-0.147714
N	 0.1223677939	-2.0981038105	-0.0110653393	-0.094975
N	-0.796976122	-1.0791766364	 0.0040299048	-0.351371
C	-0.041042538	-0.0029671378	 0.0026698058	 0.548937
H	-0.8415937788	 1.9734439317	 0.0221306394	 0.304269
H	 1.6078592578	 2.765846736	 0.0019125605	 0.176875
