18
gdb 124779	3.88898	1.05826	0.86161	1.9414	74.15	-0.2476	0.0151	0.2626	1345.0961	0.148104	-435.307358	-435.298196	-435.297252	-435.341696	33.112	
C	 0.4484120023	 1.4956934826	-0.4241192446	-0.402015
C	-0.1513608968	 0.2819059485	 0.2797433887	 0.005214
O	-0.6140122691	-0.7186224763	-0.6273873351	-0.431435
C	 0.8074641435	-0.3299895373	 1.2671003417	 0.344074
N	 1.6650441179	 0.2855759913	 2.0608286345	-0.365105
C	 2.2442269674	-0.7419837987	 2.7568525467	 0.333901
C	 3.2980562276	-0.5329575219	 3.7914085556	-0.48288
N	 1.7935695519	-1.9458356075	 2.4311488454	-0.263963
N	 0.8738154463	-1.6586135025	 1.4767786599	-0.233721
H	 1.3238265269	 1.2040570045	-1.0161272067	 0.116
H	-0.2930839485	 1.9490361668	-1.0866658973	 0.124537
H	 0.7807461749	 2.23102579	 0.31179749	 0.155149
H	-1.0515126078	 0.5944080127	 0.8241127562	 0.123209
H	 0.0757473574	-0.8516742698	-1.2878745557	 0.284743
H	 2.9242614688	 0.099505069	 4.6027770964	 0.137734
H	 3.6130372619	-1.4920704737	 4.205723934	 0.138933
H	 4.1686709788	-0.0276007493	 3.3616414848	 0.136603
H	 0.3388582967	-2.3805611785	 1.0232479655	 0.279022
