18
gdb 23511	3.80721	1.30085	1.16661	1.2629	79.08	-0.2259	0.0169	0.2429	1083.3799	0.149454	-401.89235	-401.885212	-401.884268	-401.923777	29.246	
O	-0.1135798013	 1.3469248175	 0.1197471842	-0.397777
N	 0.031999415	-0.0555463539	 0.0497168002	-0.263747
C	-1.103481734	-0.6241401995	-0.0462879998	 0.431773
C	-2.4856167581	 0.0002529303	-0.0773322126	-0.303175
C	-3.3751912691	-1.1884252043	-0.4697819067	-0.060929
C	-2.9724138053	-1.7236342036	-1.8855188097	-0.238694
C	-2.0761064483	-2.7478665655	-1.1947749392	-0.060551
C	-2.7025417304	-2.4559583665	 0.1489257747	-0.088242
C	-1.2514148418	-2.1018137639	-0.0716750969	-0.119617
H	 0.8012403851	 1.6393107368	 0.1875015303	 0.303547
H	-2.7342357272	 0.3847002162	 0.9203857617	 0.121085
H	-2.5420349427	 0.8428753096	-0.7721451767	 0.125652
H	-4.4399518285	-1.0365747268	-0.2992770172	 0.073218
H	-3.8139531501	-2.2106157389	-2.3848277369	 0.103607
H	-2.5088663828	-1.0093695279	-2.5755080969	 0.097366
H	-1.7523039665	-3.6988360959	-1.6015304559	 0.088705
H	-3.0772260923	-3.1124854819	 0.922646947	 0.089491
H	-0.4654669018	-2.7193869418	 0.3441028404	 0.098288
