17
gdb 66376	2.39939	1.44342	1.35213	1.2199	69.62	-0.2495	0.0238	0.2733	1046.7326	0.135003	-458.916761	-458.90821	-458.907265	-458.949625	32.441	
O	-0.060989167	 1.3770385537	 0.0509196128	-0.456892
C	 0.0367850395	-0.0437697332	-0.0313655678	 0.160389
C	 0.7488592497	-0.5905416632	 1.2320059926	-0.124453
O	 0.6009070251	-1.9937060308	 1.3329080857	-0.22963
C	-0.754435684	-2.3586622925	 1.3518693443	 0.022485
O	-1.4325513072	-1.9784435562	 0.1837057303	-0.23244
C	-1.413323533	-0.575657653	 0.0052979224	-0.112845
C	 0.7308444124	-0.4599908198	-1.2488999417	 0.329095
C	 1.3315218399	-0.7427464022	-2.2509526362	-0.498487
H	 0.7083565129	 1.7526465194	-0.3891133552	 0.291468
H	 1.8197275921	-0.3765160305	 1.2037159477	 0.114239
H	 0.3038750632	-0.0799060365	 2.1009266244	 0.100439
H	-0.7925339286	-3.4477213233	 1.4041714357	 0.122556
H	-1.249270213	-1.9084124265	 2.2343497575	 0.078686
H	-1.9308334451	-0.0615537669	 0.8311204759	 0.102994
H	-1.9301582827	-0.3540106367	-0.9295998307	 0.126281
H	 1.8517974058	-1.0118101418	-3.1372148476	 0.206116
