19
gdb 98971	5.14999	0.74264	0.65697	4.0878	75.49	-0.2544	0.0054	0.2598	1720.0894	0.158186	-456.402212	-456.391847	-456.390902	-456.438633	35.569	
C	-0.2000888089	 1.5375000057	 0.1208631151	-0.366672
C	 0.0260164608	 0.0471916238	-0.1171348559	-0.27313
C	 0.8233969362	-0.256730397	-1.3693887339	 0.391635
N	 1.2522092244	 0.6582918802	-2.1324280982	-0.503824
N	 1.0077713848	-1.6480097053	-1.5467416421	-0.432973
C	 1.6825282749	-2.2562355985	-2.5767237638	 0.545095
O	 2.2311912422	-1.7027441881	-3.5017637013	-0.398879
O	 1.6423241511	-3.5965034268	-2.4001709511	-0.265615
C	 2.314141629	-4.3556024954	-3.4122160185	-0.236932
H	 0.7516783651	 2.0648568353	 0.2140024769	 0.136659
H	-0.738220797	 1.9873609432	-0.7161965941	 0.136674
H	-0.779403056	 1.6915327463	 1.0359280944	 0.10397
H	 0.5472215442	-0.4026120956	 0.7401426516	 0.114761
H	-0.9364834786	-0.4798126015	-0.1859377445	 0.114744
H	 1.7659183771	 0.2645845286	-2.9214326126	 0.248743
H	 0.6111116408	-2.2703412965	-0.8597528027	 0.259263
H	 3.3744153522	-4.094406976	-3.4515659573	 0.145262
H	 2.1892974174	-5.3998252876	-3.1259659586	 0.135925
H	 1.8683891102	-4.1723491849	-4.3928569931	 0.145295
