18
gdb 64980	3.60919	1.01937	0.85193	1.3329	76.76	-0.2731	-0.0225	0.2506	1363.0305	0.14601	-439.113809	-439.104491	-439.103547	-439.14862	33.495	
C	 0.0258614808	 1.4818924628	-0.3566952044	-0.467421
C	 0.0041049508	-0.0091901988	-0.088145566	 0.16764
C	 1.3256038102	-0.7636534429	 0.0378942609	-0.276208
C	 0.5006983977	-0.5318803829	 1.2578580928	-0.276204
C	-1.0934090189	-0.8241191975	-0.6753679363	 0.4505
O	-1.233785096	-2.0137823858	-0.5446444375	-0.367167
O	-1.9553404909	-0.0390750306	-1.4068865202	-0.213879
C	-3.0242688433	-0.6490434269	-2.0138183665	 0.115862
N	-3.8100786191	 0.0717056114	-2.6811253481	-0.424043
H	 0.8877665025	 1.9370683631	 0.1396156591	 0.113151
H	 0.0979115368	 1.6953705684	-1.426723779	 0.134918
H	-0.8785039282	 1.9697008345	 0.0173150645	 0.134934
H	 1.3526410353	-1.7680126014	-0.3667279617	 0.139793
H	 2.2247983064	-0.1755241944	-0.1071073599	 0.122298
H	 0.8191214858	 0.2194392728	 1.9717190511	 0.122302
H	-0.0280502443	-1.3800744986	 1.675205791	 0.139787
H	-3.0580382485	-1.7233040698	-1.8330303404	 0.144617
H	-4.5533814173	-0.5042246935	-3.0741426394	 0.23912
