25
gdb 118641	2.6943	0.71265	0.59133	0.4798	95.99	-0.2581	0.0538	0.3119	2013.3414	0.226125	-352.340918	-352.329227	-352.328283	-352.378388	42.097	
C	-0.0398332849	 1.6178164367	 0.0063245344	-0.380532
C	 0.001501872	 0.0873450381	 0.0241834135	-0.17509
C	 0.6945971182	-0.5020935398	-1.2077464725	-0.172229
C	 0.7589852428	-2.0478330032	-1.224186021	-0.163274
C	 1.3333065345	-2.5720250965	-2.5617225037	-0.172226
C	 1.2926162086	-4.095609499	-2.7117097697	-0.175089
C	 1.8718678836	-4.5762779062	-4.0450519402	-0.380536
C	 1.5227744929	-2.5575360693	-0.0846500726	 0.360578
C	 2.1741820266	-2.9628353412	 0.8422096858	-0.501012
H	 0.9707028099	 2.0406318169	-0.0191194791	 0.114612
H	-0.5756776423	 1.9925620396	-0.8731986392	 0.111368
H	-0.5426062835	 2.0128108535	 0.8946338628	 0.111695
H	 0.5169557969	-0.2594615456	 0.926964299	 0.112646
H	-1.0219975388	-0.3065674335	 0.0855023999	 0.091391
H	 0.1671101205	-0.1778450929	-2.1142936985	 0.090717
H	 1.71576391	-0.1066633556	-1.2822072048	 0.100881
H	-0.27114971	-2.4251044299	-1.1333697791	 0.099034
H	 0.7626757715	-2.1088789136	-3.3772510948	 0.090722
H	 2.3671845658	-2.2178693385	-2.6635002637	 0.100878
H	 1.8425816711	-4.5533175376	-1.8816302283	 0.112647
H	 0.2538323892	-4.4399244581	-2.6176167687	 0.091391
H	 1.3216909599	-4.1553594474	-4.8943221859	 0.111365
H	 2.9206054847	-4.2772801254	-4.1515813691	 0.114612
H	 1.8275168692	-5.6666861319	-4.1283293863	 0.111694
H	 2.7371468918	-3.3277770597	 1.664986142	 0.193754
