11
gdb 240	9.27563	2.24606	1.83479	4.0954	45.3	-0.2723	-0.0251	0.2472	632.4706	0.083113	-322.460671	-322.454075	-322.45313	-322.491611	21.35	
C	-0.0900440871	 1.4363699224	-0.0670866313	-0.461071
C	 0.1542527159	-0.0355556972	 0.1047506364	 0.41458
N	 0.5324139089	-0.6779501359	 1.1240239974	-0.495117
O	-0.0820694347	-0.6783387209	-1.0935793222	-0.208848
C	-0.170093804	-2.0503551882	-1.1248846514	 0.176201
O	-0.2890430696	-2.6226210716	-2.1623222018	-0.254626
H	 0.1208077434	 1.9772471204	 0.8565263896	 0.133526
H	 0.5432131404	 1.8275062079	-0.869167737	 0.161112
H	-1.1289291621	 1.6120387428	-0.3628684685	 0.157828
H	 0.6557536839	-0.055064282	 1.918886668	 0.2353
H	-0.130319965	-2.4990136174	-0.1253089291	 0.141116
