20
gdb 11059	3.23876	2.18882	1.8538	1.6257	73.23	-0.2353	0.0773	0.3126	832.4659	0.179792	-349.026875	-349.019944	-349.018999	-349.05741	28.521	
C	-0.0394039007	 1.4882073118	-0.0035627794	-0.487432
C	 0.0097039614	-0.0292608766	 0.0092478453	 0.294463
C	 0.7374689441	-0.6827010474	-1.1984654454	-0.239493
C	 0.9672947592	-2.1541528445	-0.7280783844	-0.218936
C	 0.3507976061	-2.1300135812	 0.6840245676	 0.107137
C	 0.7202271096	-0.7316466707	 1.1922800135	-0.255596
O	-1.0771521027	-2.0577746445	 0.5468294614	-0.28187
C	-1.3671995774	-0.7168534195	 0.1187818981	-0.089618
H	 0.9685592981	 1.9150035977	-0.0410692757	 0.115156
H	-0.5867752463	 1.8609132314	-0.8771891654	 0.115527
H	-0.5371139296	 1.8787760374	 0.8908428345	 0.114419
H	 0.1413208309	-0.6167939477	-2.1137669068	 0.096132
H	 1.6858812596	-0.1702183538	-1.3904428196	 0.092177
H	 0.4570786369	-2.8897383879	-1.3537719181	 0.105781
H	 2.0303042063	-2.4138913648	-0.6987037907	 0.093548
H	 0.5860570172	-2.9858634178	 1.3178806362	 0.068975
H	 1.7973482327	-0.5425555066	 1.2218209818	 0.092365
H	 0.279267906	-0.5037221623	 2.1668143624	 0.097516
H	-2.0124353107	-0.2271168151	 0.8621023314	 0.088338
H	-1.9027342809	-0.7364603377	-0.8396898068	 0.091411
