19
gdb 106133	2.74246	1.5481	1.38388	1.4604	79.01	-0.2228	0.0144	0.2372	1024.945	0.160981	-385.856266	-385.848728	-385.847784	-385.888239	30.342	
O	 0.1708054071	 1.3708885687	-0.1200412907	-0.414151
C	 0.0382598482	-0.031004583	 0.0758239437	-0.196514
C	-1.3856606716	-0.4837674016	 0.0763050803	 0.328358
C	-2.0165364942	-1.8461934546	-0.0980260634	-0.136327
C	-2.8612961401	-1.6524946703	 1.1534384473	-0.223957
C	-2.5276677979	-0.1066065947	 1.0886062627	-0.149885
C	-3.6015415953	 0.5414072059	 0.2471855724	-0.088887
C	-3.4729391846	 0.1270426295	-1.0188502943	-0.087045
C	-2.2521327093	-0.7188016129	-1.1408730432	-0.138795
H	-0.3648273643	 1.6024747055	-0.8862388529	 0.284642
H	 0.59632118	-0.6030308251	-0.6851623941	 0.084069
H	 0.5131615958	-0.2359922208	 1.0426918068	 0.108315
H	-1.5537531477	-2.7720725743	-0.4204625647	 0.087127
H	-3.9190988718	-1.9340910391	 1.132081028	 0.092087
H	-2.3721874116	-2.1170719709	 2.013392189	 0.104464
H	-2.2659821714	 0.3788723913	 2.0274761485	 0.075153
H	-4.4253418829	 1.1112103306	 0.6593570764	 0.095487
H	-4.1546127243	 0.3215718353	-1.8375836771	 0.095393
H	-1.7769556239	-0.8933582993	-2.1007790047	 0.080465
