16
gdb 42512	3.17013	1.21692	1.04677	2.3269	78.09	-0.2374	-0.0322	0.2052	1168.2944	0.122435	-400.687721	-400.679223	-400.678279	-400.721303	31.697	
O	 0.0329547798	 0.0439244179	 0.5467072398	-0.295922
C	-0.0355221309	 1.2106797661	 0.3104349705	 0.327091
C	-1.2043862107	 2.2442836482	 0.1274065984	-0.248066
N	-0.1531297421	 3.3159320223	-0.0363610369	-0.395964
C	 0.9339461286	 2.324418659	 0.0776180658	 0.239812
C	 2.2505202345	 2.5277147386	 0.785561087	-0.29641
C	 2.2282321123	 2.2680705964	-0.6941602575	-0.3205
C	-2.0719242649	 2.0156545066	-1.0062673326	 0.32051
C	-2.7650914477	 1.8292638023	-1.9712896315	-0.44913
H	-1.7828035609	 2.3874554603	 1.0472249493	 0.136184
H	-0.2059971463	 3.7152697038	-0.9690991311	 0.232089
H	 2.4536654663	 3.5378659926	 1.1234709745	 0.134939
H	 2.5826358366	 1.7354406621	 1.447964497	 0.137775
H	 2.5424972893	 1.2977506307	-1.0636508992	 0.141304
H	 2.4307333616	 3.1004161874	-1.360557491	 0.12968
H	-3.3876065854	 1.6603923356	-2.8151144324	 0.206608
