16
gdb 110192	2.65581	1.19249	0.90719	2.7114	67.94	-0.2438	-0.0422	0.2016	1262.466	0.121852	-475.029688	-475.020447	-475.019503	-475.064625	31.621	
C	-0.2757021599	 1.3510458008	-0.0955261194	-0.252486
O	 0.301120199	 0.0664463327	 0.1055217479	-0.241221
C	 0.7592793229	-0.5100259174	-1.072417688	-0.046697
C	 1.3079647889	-1.9657500193	-0.8891752299	-0.076557
N	 0.2816760587	-2.4088502717	-1.8240216224	-0.327106
C	-0.2870575731	-1.1756158866	-2.0296474093	 0.424809
O	-1.2181836087	-0.7910323975	-2.6824408287	-0.355935
C	 2.7363248569	-2.1964035865	-1.3149425688	 0.141019
O	 3.0527474167	-2.764197219	-2.3280891809	-0.242578
H	 0.4616547843	 2.0541611359	-0.5108336746	 0.113022
H	-1.1375027387	 1.300990194	-0.7704971963	 0.149098
H	-0.5967807418	 1.7070273804	 0.8850176151	 0.135113
H	 1.4460853981	 0.1550184237	-1.620488971	 0.101115
H	 1.16577815	-2.3056462574	 0.1448304029	 0.121009
H	 0.193509899	-3.2792232567	-2.3268182838	 0.266244
H	 3.4927456277	-1.7951004754	-0.6039160127	 0.091152
