18
gdb 113117	2.31234	1.17039	0.8913	4.4448	84.33	-0.2621	0.0096	0.2717	1352.6255	0.145419	-364.785242	-364.775579	-364.774635	-364.81994	35.268	
C	-0.002766604	 1.5217975756	-0.2534101886	-0.379177
C	-0.0366438189	 0.0809165944	 0.2702961226	-0.210455
C	-1.4171155512	-0.5280669402	 0.1613428076	-0.020646
C	-1.8909853116	-1.1861238031	-1.0897186698	-0.305812
C	-1.6020007493	-2.0630960976	 0.142511303	-0.011818
C	-0.4521684191	-2.9270754374	 0.1300167699	 0.260641
C	 0.5068426752	-3.6511453055	 0.1204738229	-0.429988
C	-2.7507299395	-2.5746379031	 0.8534742369	 0.232417
N	-3.6804761907	-2.9619530878	 1.4219497952	-0.342939
H	 1.0014977046	 1.944917089	-0.1595292378	 0.121343
H	-0.2905245107	 1.5670413053	-1.3088567154	 0.121594
H	-0.6896400048	 2.1655686731	 0.3063084976	 0.121652
H	 0.6785821398	-0.5372806117	-0.2817278624	 0.11577
H	 0.2828551049	 0.0585058591	 1.3189637743	 0.115342
H	-2.1847448654	-0.0227873248	 0.7412586027	 0.119802
H	-2.9295450779	-1.0921850727	-1.3835159553	 0.146414
H	-1.1869805963	-1.3035266203	-1.9059248979	 0.141337
H	 1.349906695	-4.2971112324	 0.1149503044	 0.204524
