17
gdb 117881	4.06358	0.55111	0.50796	3.3539	77.72	-0.2709	-0.0662	0.2047	2071.8258	0.13216	-458.923817	-458.913062	-458.912118	-458.961527	35.681	
O	-0.1921323253	 1.4825070479	 0.1707582916	-0.422608
C	-0.021096748	 0.0760724981	 0.1111015962	-0.080993
C	-1.410182614	-0.5430025759	 0.0036204811	-0.181579
C	-1.3535940635	-2.0802626998	-0.0820736817	-0.076179
O	-0.6822196335	-2.6643034646	 1.0288360783	-0.410758
C	-2.6969725159	-2.6354696792	-0.2594776587	 0.085326
C	-3.8169939943	-3.0817963812	-0.3444900958	 0.046631
C	-5.1500521095	-3.6080666896	-0.4900198871	 0.024735
O	-5.7612422197	-4.172985452	 0.3874998711	-0.2278
H	 0.6689308632	 1.8839303389	 0.3189838767	 0.288919
H	 0.5822507968	-0.2190042053	-0.7639798411	 0.086563
H	 0.4861631092	-0.3132543786	 1.0040841017	 0.105817
H	-2.009284223	-0.2469187313	 0.8725462076	 0.11475
H	-1.9168259957	-0.1482740332	-0.8834935658	 0.123312
H	-0.7436270039	-2.3608306331	-0.9508683213	 0.129037
H	-1.2628658923	-2.5926195081	 1.7953838095	 0.291696
H	-5.5898617705	-3.4520247431	-1.4959321521	 0.103133
