18
gdb 32774	2.99936	1.25266	0.92236	1.4463	75.76	-0.1796	0.0348	0.2144	1243.4023	0.148494	-439.10443	-439.095596	-439.094651	-439.138671	33.067	
N	-0.4030351133	 1.4137531843	-0.3522974225	-0.620483
C	-0.1983804733	 0.0481625543	-0.1145792602	 0.123341
C	-1.118432475	-0.9673746105	-0.1122330241	 0.296359
C	-2.6067549429	-1.0549719083	-0.2208808511	-0.321618
C	-3.2302524811	-0.3611024822	-1.4322869681	-0.0764
O	-3.2192729138	 1.0488624056	-1.2000253849	-0.406
O	-0.4676214889	-2.1706739905	 0.0699490093	-0.18561
C	 0.8507003366	-1.9019438491	 0.2017590028	-0.0224
C	 1.0833915916	-0.5697745083	 0.0937837124	-0.223324
H	 0.0723165588	 2.0056387325	 0.3167723688	 0.233749
H	-1.3887998136	 1.6444909004	-0.4136680815	 0.24928
H	-2.8665585895	-2.117675369	-0.2592742727	 0.121518
H	-3.0989760101	-0.645608838	 0.6733058534	 0.11875
H	-2.6693869154	-0.6153828783	-2.3414911499	 0.103997
H	-4.2665224318	-0.7087931755	-1.5579401798	 0.092329
H	-3.3950187824	 1.4958791332	-2.0331498695	 0.293032
H	 1.4923647792	-2.7539550906	 0.3574275772	 0.124601
H	 2.0397758347	-0.0716784399	 0.1393558704	 0.098879
