22
gdb 122306	3.8278	0.82056	0.75369	0.9221	83.85	-0.2463	0.0898	0.3361	1618.9216	0.193768	-404.302391	-404.292856	-404.291912	-404.337727	34.909	
C	 0.7008172911	 1.1316829701	-0.5552322344	-0.385224
C	-0.0389082757	 0.0238628587	 0.1754300078	-0.017768
O	 0.880129977	-0.6656623336	 0.9973400397	-0.250632
C	 0.2921210219	-1.7252004426	 1.724653478	-0.165297
C	 1.3301669757	-2.3279627885	 2.6175634195	 0.341315
C	 2.272899418	-1.5577095657	 3.5567409384	-0.293692
C	 3.3730790353	-2.638418553	 3.2854598885	-0.234243
C	 2.3885837194	-3.3661043579	 2.3597123276	-0.072781
N	 1.1508091187	-3.7060826395	 3.0581836871	-0.370634
H	 1.5000781226	 0.7150320195	-1.1747385671	 0.126329
H	 0.0148128462	 1.6883333529	-1.2006511349	 0.114161
H	 1.1492568001	 1.8287723997	 0.1584925391	 0.124714
H	-0.8571858412	 0.4416559575	 0.78697048	 0.084267
H	-0.5021316987	-0.6722209314	-0.5444274839	 0.085756
H	-0.5555261603	-1.3497296967	 2.3266542546	 0.083225
H	-0.1071376085	-2.5013025096	 1.0529946614	 0.099173
H	 2.5463943257	-0.5798183207	 3.1577057409	 0.123156
H	 1.9236668735	-1.4388615169	 4.5885573297	 0.088478
H	 4.2367909111	-2.2258896203	 2.7591314008	 0.11039
H	 3.730029988	-3.2181332493	 4.1436870407	 0.094844
H	 2.6267451166	-3.9164666518	 1.4563736096	 0.093024
H	 1.2829910037	-3.8202276111	 4.0621896668	 0.221439
