19
gdb 89385	2.64153	1.48705	1.22101	3.121	70.62	-0.2302	0.0655	0.2957	1072.0894	0.158549	-460.151759	-460.143126	-460.142182	-460.184161	34.62	
O	-0.6905891935	 1.1446477419	 0.9455901769	-0.42372
C	-0.0740614605	 0.1760328361	 0.0973454379	 0.082946
C	 0.9220044704	-0.7358267964	 0.8636757312	-0.3037
C	 0.0943400312	-1.9223424985	 1.3237276734	 0.310073
O	 0.7287903161	-3.1582393901	 1.5064890844	-0.479861
C	-1.22261208	-1.6565345513	 2.0279820423	-0.419889
C	-1.1870076987	-1.9452121363	 0.53588475	 0.406834
O	-1.6937388263	-3.1494260553	 0.0580786841	-0.489529
C	-1.1865543795	-0.7655088642	-0.4172099253	-0.263357
H	 0.0045533819	 1.6985349335	 1.3151777841	 0.281027
H	 0.4263279344	 0.6859249161	-0.7363967806	 0.073652
H	 1.7017756235	-1.1025682686	 0.1860435453	 0.10892
H	 1.4185260019	-0.1872691627	 1.6741242514	 0.082788
H	 0.9201133095	-3.2743176217	 2.4426190419	 0.28883
H	-1.6036400001	-2.473880325	 2.6320222349	 0.104001
H	-1.4409105481	-0.6552512967	 2.3804982012	 0.131119
H	-1.0541504474	-3.829348296	 0.3119947156	 0.28616
H	-2.1379195047	-0.2295816503	-0.471907521	 0.117176
H	-0.94330026	-1.1342738546	-1.4190295078	 0.106529
