17
gdb 55943	4.30203	1.02338	0.91858	3.3894	68.44	-0.2427	0.0502	0.2929	1263.907	0.136602	-455.137428	-455.129116	-455.128172	-455.171329	30.793	
N	-0.1969541935	 1.2969010084	 0.0459420105	-0.564495
C	-0.0390171622	-0.0529573687	 0.1784220279	 0.493577
O	 0.9142036882	-0.6023596881	 0.6799059916	-0.399417
O	-1.1337698061	-0.6971582958	-0.3043204692	-0.275803
C	-1.0874654714	-2.1220368461	-0.1817189351	 0.146162
C	-1.4118543537	-2.7674327414	 1.1845855156	-0.194058
N	-2.549457921	-3.5594431569	 0.5875562958	-0.127428
C	-3.5033250768	-2.5491206371	 0.1095787911	-0.231801
C	-2.3160945506	-2.8160819093	-0.7277048919	-0.076817
H	 0.6253103154	 1.8574228361	 0.1885992521	 0.269963
H	-0.9083121068	 1.6458898139	-0.5734002334	 0.265556
H	-0.1475379697	-2.4862342688	-0.5969749852	 0.11165
H	-0.6266137728	-3.428657893	 1.5512493904	 0.126537
H	-1.7196831344	-2.0832850887	 1.9808045405	 0.113045
H	-4.4434103644	-2.9761989084	-0.2253715575	 0.124233
H	-3.5913738857	-1.6050139464	 0.6423045601	 0.119702
H	-2.3775293045	-3.3172633296	-1.6875543735	 0.099393
