15
gdb 68706	2.04947	1.76858	1.14472	4.0344	75.94	-0.2331	-0.0156	0.2175	1066.5577	0.109669	-420.578155	-420.569649	-420.568705	-420.611158	32.145	
O	 0.0665039171	 1.3852275589	-0.1526232095	-0.432768
C	 0.0393358526	 0.0248589142	-0.0583772707	 0.378218
C	-0.2590328369	-0.7717776698	 1.1409423851	-0.38935
C	-1.2164880302	-0.9933879548	-0.0596243734	-0.016027
C	-2.6120923185	-0.7872027385	 0.0592457506	 0.177258
C	-3.7967581414	-0.5886491209	 0.1456711867	-0.412763
C	-0.481956424	-1.7576317628	-1.1261077118	 0.365627
O	-0.8032729581	-2.6476388966	-1.8587243951	-0.301387
C	 0.7487887174	-0.814627494	-1.11299374	-0.402354
H	-0.3449733635	 1.7734380657	 0.6273946218	 0.300162
H	 0.3909462339	-1.5780257746	 1.4745671128	 0.132775
H	-0.7557564658	-0.2440329265	 1.9513679363	 0.134525
H	-4.8441420846	-0.4281852937	 0.212585859	 0.193018
H	 0.820695015	-0.2989580699	-2.0746777015	 0.148607
H	 1.724393437	-1.2310654466	-0.8452541402	 0.124459
