16
gdb 36708	5.09305	0.82528	0.78534	2.0587	71.86	-0.2622	0.0161	0.2783	1434.4897	0.1234	-437.852396	-437.843943	-437.842999	-437.886677	30.181	
C	-0.0036171552	-1.2068253222	 0.1509507622	-0.413557
C	 0.0122265997	-0.0100605853	 0.0579970743	 0.285379
C	-0.0041072666	 1.4399660357	-0.0567120794	-0.223105
O	 1.335450716	 1.9330079903	-0.0924294008	-0.240793
C	 1.4223475003	 3.3179590838	-0.0829836769	 0.203415
C	 2.9048740314	 3.7375821294	-0.1135539477	-0.204528
N	 3.128426161	 4.2724284067	-1.4652906257	-0.255363
C	 1.9876622361	 4.2983350462	-2.0111014167	 0.116166
O	 0.8959214642	 3.8769654971	-1.3139216218	-0.233477
H	-0.0115418094	-2.2657386979	 0.2323269823	 0.204715
H	-0.5392144286	 1.7433274934	-0.9660663107	 0.145665
H	-0.5403904251	 1.8800527049	 0.7997910009	 0.12428
H	 0.8205654039	 3.7448241771	 0.7296434175	 0.085437
H	 3.1334098887	 4.5059441782	 0.631550474	 0.122913
H	 3.5435725336	 2.8712066446	 0.0758194478	 0.139321
H	 1.7727565401	 4.6470591179	-3.0148366094	 0.14353
