18
gdb 40522	3.24439	1.36349	1.16669	2.2563	71.4	-0.2281	0.0513	0.2793	1087.3912	0.148158	-439.004128	-438.996372	-438.995428	-439.036818	29.465	
C	 0.1929838041	 1.5023515081	 0.0472941976	-0.189422
O	 1.0189641353	 0.4309841965	-0.4075890727	-0.230764
C	-0.2970740713	 0.1155950832	 0.0529738151	 0.002503
C	-0.4082274203	-0.6849713925	 1.3135658554	 0.287201
C	 0.6853159035	-0.5478499961	 2.3970226548	-0.138997
O	 0.8191670777	-1.9848205371	 2.5103707903	-0.287849
C	-0.1609785656	-2.2149852804	 1.4874252109	 0.047636
C	-1.5929677976	-2.3195986654	 2.0522855155	-0.183601
N	-1.7993842394	-0.8677903098	 1.7791538295	-0.377735
H	 0.5067776052	 1.9688659303	 0.9805021496	 0.113175
H	-0.1506112516	 2.1907164523	-0.7228707482	 0.122357
H	-0.9964929221	-0.1803109315	-0.7288099837	 0.098889
H	 1.6173420955	-0.0931797304	 2.0426692385	 0.120733
H	 0.3717397144	-0.077057358	 3.337878034	 0.091927
H	 0.1781739655	-2.9119807826	 0.7187954783	 0.090161
H	-2.2913088735	-2.9488081232	 1.48876675	 0.106618
H	-1.6018626802	-2.6222100145	 3.1047616907	 0.109554
H	-2.0722835396	-0.298796159	 2.5739250844	 0.217614
