16
gdb 1128	5.33936	1.64693	1.31797	4.7725	57.81	-0.2486	0.0191	0.2677	901.9055	0.135762	-362.958208	-362.94998	-362.949036	-362.990904	29.418	
C	 0.0079037203	 1.5987599585	-0.0301239008	-0.38649
C	 0.0699315657	 0.0774783487	 0.0261545274	 0.156665
O	-1.2261197566	-0.3943435743	 0.3276842971	-0.442956
C	 0.5737710154	-0.521481438	-1.3026942588	-0.325765
C	 0.6775002033	-2.0404684338	-1.2410184816	 0.423763
N	 1.6380398532	-2.6005038205	-2.0220063965	-0.515834
O	-0.0586895615	-2.7261138121	-0.5430585421	-0.377705
H	 0.9979782064	 2.0310422844	-0.2063286766	 0.103396
H	-0.6658575697	 1.9234906491	-0.8297730585	 0.118195
H	-0.3786751889	 1.9865492304	 0.9159807602	 0.127112
H	 0.7813001105	-0.2177924063	 0.8179146909	 0.063704
H	-1.1684461929	-1.3615772541	 0.26192511	 0.295027
H	-0.1475935763	-0.2682572113	-2.0906464879	 0.136393
H	 1.5371348069	-0.0817916938	-1.5856700476	 0.096895
H	 2.2447940958	-2.0520109444	-2.6047327558	 0.263145
H	 1.7116416884	-3.6046838327	-2.0477311196	 0.264457
