15
gdb 29914	3.40957	1.31487	0.95469	5.4959	76.12	-0.211	0.0096	0.2206	1160.3477	0.113554	-416.864228	-416.855713	-416.854769	-416.897867	30.561	
C	 0.0094014493	 1.4586440954	 0.0159656015	-0.344674
N	-0.0119470855	 0.0078791522	-0.0100513858	-0.058299
C	-0.057438051	-0.792053109	-1.1489662089	-0.088959
C	-0.0118219683	-2.1001582723	-0.7680912833	-0.279869
C	 0.070488119	-2.1240242452	 0.6663312689	 0.048351
C	 0.1346144974	-3.2114640771	 1.5592657433	 0.170428
N	 0.1895706991	-4.0650703927	 2.3446267845	-0.377753
C	 0.0705667592	-0.7966012279	 1.0775431123	 0.321029
O	 0.1360341995	-0.2439287056	 2.3014971426	-0.429988
H	 1.0237811837	 1.8460195125	-0.1269379455	 0.148227
H	-0.6336790784	 1.8436514008	-0.7782045003	 0.146841
H	-0.3669834688	 1.8062939696	 0.9784684919	 0.165483
H	-0.1230472402	-0.3376290736	-2.1235040554	 0.130598
H	-0.0405841388	-2.9626509593	-1.4135930925	 0.122376
H	 0.1569722336	-0.9539153577	 2.9555701067	 0.326208
