18
gdb 128320	4.78032	0.86333	0.76095	2.053	76.59	-0.1905	0.0236	0.2141	1489.2435	0.149162	-435.275409	-435.266198	-435.265254	-435.310015	33.206	
C	 0.3468853229	 1.2601286187	-0.2758710461	-0.322007
N	 0.0685829106	-0.1558307397	-0.1201578702	-0.367138
C	-1.2490785201	-0.5672945948	 0.0091330028	 0.411484
N	-1.5393964296	-1.6970515183	 0.6551594394	-0.331277
N	-2.8841244537	-1.8167882973	 0.5186054157	-0.239009
C	-3.4485802322	-0.7927708592	-0.1588090049	 0.352896
C	-4.9236904343	-0.7560030069	-0.4151098152	-0.175216
O	-5.6711659307	-1.3021034268	 0.6666222833	-0.414928
C	-2.4148048448	 0.054410482	-0.5123369785	-0.414192
H	 1.4288520802	 1.4057173181	-0.3211526136	 0.123696
H	-0.0705122921	 1.6231987611	-1.220984417	 0.130505
H	-0.0565865492	 1.8874937386	 0.5352735075	 0.108321
H	 0.6680731592	-0.6268146825	 0.5427748715	 0.239233
H	-3.3690441801	-2.5781440879	 0.9610864676	 0.272161
H	-5.2284647938	 0.272696338	-0.6534797239	 0.1093
H	-5.1853456586	-1.3763401945	-1.2804382602	 0.1324
H	-5.4955269514	-0.7582929731	 1.4423824416	 0.287275
H	-2.4930969321	 0.9731694846	-1.0695223399	 0.096496
