18
gdb 93751	2.19189	1.62108	0.97867	5.5863	80.33	-0.2126	-0.0356	0.177	1188.8011	0.147681	-439.119943	-439.110929	-439.109985	-439.153908	32.968	
C	 0.1044897403	 1.5331759555	 0.0262977254	-0.502485
C	-0.01021546	 0.0427345052	 0.026386765	 0.281453
C	-1.125620046	-0.7433148991	 0.0415522574	 0.080522
C	-2.5033792765	-0.3640898999	 0.0304631341	 0.047341
O	-3.4225870222	-1.1735664426	-0.0656864874	-0.340239
C	-0.7144571928	-2.2061265438	 0.0415767792	 0.037309
O	-1.3246929717	-2.9763468043	-0.9749979916	-0.443703
C	 0.8125691341	-2.1294867142	-0.2016766491	-0.193824
N	 1.130254233	-0.7122899313	 0.0375490135	-0.337099
H	 0.6899022547	 1.8705861534	 0.8884780737	 0.149057
H	 0.6216297158	 1.8798241137	-0.8763057816	 0.142255
H	-0.8741937806	 2.0112285478	 0.0630233667	 0.153237
H	-2.7289460736	 0.722155078	 0.0961179907	 0.057714
H	-0.9252045904	-2.654615898	 1.0261075479	 0.077997
H	-2.273204963	-2.8012974893	-0.8791832286	 0.297068
H	 1.3924915555	-2.7745336485	 0.4621698038	 0.118641
H	 1.0122061878	-2.4150752636	-1.2415188857	 0.127762
H	 1.9953556355	-0.3232932891	-0.3048059931	 0.246995
