23
gdb 101814	4.08728	0.58836	0.53455	2.2855	78.95	-0.2548	0.0606	0.3154	2074.4338	0.203008	-462.560677	-462.549386	-462.548442	-462.59789	40.911	
C	-0.0390052671	 1.577987729	 0.0419643507	-0.403494
C	-0.0189555213	 0.0500827728	 0.0041165068	 0.132362
O	 0.7769860509	-0.4815576193	 1.0638994624	-0.428728
C	-1.4291773771	-0.5525936637	 0.0039197975	-0.187879
C	-1.4298162167	-2.0816758685	-0.0827100722	-0.207693
C	-2.8272610819	-2.6948764925	-0.0604629753	 0.089827
O	-3.6457809972	-2.2290542793	-1.1453331123	-0.440604
C	-2.8166881143	-4.2253509907	-0.0791874894	-0.061374
O	-4.1295231958	-4.7404409623	-0.1202081172	-0.425703
H	 0.9809895769	 1.971269612	 0.0588691595	 0.12441
H	-0.5579937757	 1.990617712	-0.8290977866	 0.117259
H	-0.5598696853	 1.9373294167	 0.9386836926	 0.106903
H	 0.5017920233	-0.2754026607	-0.906169315	 0.085445
H	 0.4128125187	-0.1516420488	 1.8933385119	 0.27572
H	-1.9481942729	-0.2365960672	 0.9214650275	 0.085123
H	-2.0058264429	-0.134080253	-0.8287267646	 0.103421
H	-0.9156659298	-2.3996609113	-1.0029590682	 0.085113
H	-0.8406016825	-2.4895864435	 0.7459745783	 0.115902
H	-3.3669584577	-2.3673859328	 0.8367805073	 0.093983
H	-3.1597387016	-2.391131672	-1.9633324917	 0.280504
H	-2.2203781628	-4.5689799105	-0.9456794749	 0.069377
H	-2.333375669	-4.616042952	 0.8230919459	 0.106782
H	-4.6101661683	-4.1554303946	-0.7209101329	 0.283345
