19
gdb 66386	2.25998	1.57756	1.39477	1.9325	71.43	-0.2402	-0.0345	0.2056	1055.2287	0.158077	-460.176296	-460.167571	-460.166627	-460.209546	32.876	
C	 0.0879229722	 1.499472253	 0.1560302613	-0.432785
C	 0.0062307228	-0.0155385347	 0.015831477	 0.32845
O	 0.7137622901	-0.3562707375	-1.1660759811	-0.280729
C	 0.8912723547	-1.7634684824	-1.3371420072	-0.092244
C	 1.5718104951	-2.3666878059	-0.1106171705	-0.207136
C	 0.7585469759	-1.9871610317	 1.1254113407	-0.090129
O	 0.5618860091	-0.5712586415	 1.1722921045	-0.271217
C	-1.4741208951	-0.4116922479	-0.1917086303	 0.12811
O	-2.1525520485	-1.0193554532	 0.5914180914	-0.249974
H	 1.1413968257	 1.7841073016	 0.1992297867	 0.141231
H	-0.3770756263	 1.991259341	-0.701636613	 0.128295
H	-0.4104829305	 1.8145936995	 1.0752171811	 0.14074
H	-0.0793447307	-2.2564047706	-1.5117836892	 0.099839
H	 1.4917519495	-1.8785223151	-2.2427239121	 0.116341
H	 1.6388455175	-3.4558743108	-0.2063040048	 0.103191
H	 2.5870112407	-1.9649999335	-0.0246562126	 0.114033
H	-0.2098544258	-2.5021057288	 1.1287492271	 0.120337
H	 1.2828611859	-2.2388889067	 2.0503151703	 0.113488
H	-1.8736152922	-0.0548009347	-1.1691044791	 0.090158
