16
gdb 43471	2.55651	1.88714	1.30396	3.2038	70.54	-0.2726	-0.0179	0.2547	963.3817	0.127047	-437.926743	-437.919929	-437.918984	-437.958027	26.961	
N	-0.0673786734	 1.2806531204	-0.2518291211	-0.51396
C	-0.0741187811	 0.0547684787	 0.0348248271	 0.424712
O	 1.0980215403	-0.6031379776	 0.4062640388	-0.249088
C	 1.067924899	-1.9551213325	 0.7182359111	 0.430325
O	 2.0835056237	-2.4974993561	 1.0333941393	-0.311931
C	-0.298938345	-2.5856286082	 0.613292685	-0.14646
C	-0.9464867107	-2.1353760027	-0.7306762656	-0.246084
C	-1.2963224413	-0.8106743183	 0.0118728359	-0.083347
C	-1.3264973861	-1.6532196021	 1.322527588	-0.246087
H	 0.8760468872	 1.6648872955	-0.1674658985	 0.234375
H	-0.2354471031	-3.6404671504	 0.8727473096	 0.104688
H	-0.3185763106	-2.0842488134	-1.6224950678	 0.126378
H	-1.8455786753	-2.7170381342	-0.9424216465	 0.121747
H	-2.1621977129	-0.2240310116	-0.2861484596	 0.106614
H	-2.2874037463	-2.1564544304	 1.4447857347	 0.121743
H	-1.0370274844	-1.1726825272	 2.2592867295	 0.126374
