17
gdb 28249	4.68266	1.19413	0.9684	1.1927	76.32	-0.1553	0.0611	0.2164	1174.5814	0.139082	-418.026701	-418.018947	-418.018003	-418.058613	30.227	
O	 0.0009637306	 1.3059023696	 0.2056963721	-0.434963
C	 0.0640576191	-0.0365231292	 0.0069986306	 0.402052
C	 0.1578683614	-0.8032545302	-1.1396844356	-0.478409
C	 0.0730256288	-2.1506644255	-0.6768924797	 0.325792
C	-0.0876805263	-2.1552096902	 0.67819445	 0.210316
C	 0.1430269775	-3.519635405	 1.246300164	-0.332239
C	-0.0519269253	-4.3509189444	-0.0608173846	-0.154749
N	 0.3323929708	-3.4458157737	-1.1812473693	-0.397885
N	-0.0260964894	-0.8351995208	 1.114421715	-0.407678
H	 0.0328439601	 1.7380732949	-0.6527841991	 0.306364
H	 0.2723678809	-0.4335684188	-2.1467181626	 0.083581
H	 1.1616995989	-3.6451368873	 1.6456313252	 0.103261
H	-0.5535580404	-3.8458121559	 2.0267863545	 0.096836
H	 0.5537647597	-5.2607981185	-0.0769690408	 0.102135
H	-1.1106441229	-4.6388832172	-0.1356884613	 0.094815
H	-0.1658538351	-3.6706724486	-2.0350976499	 0.222018
H	-0.2705201284	-0.4827990693	 2.0237069913	 0.258751
