17
gdb 107604	2.74548	1.5466	1.13193	2.1217	68.24	-0.2485	-0.0345	0.214	1066.9365	0.135857	-458.95999	-458.951927	-458.950983	-458.992744	30.429	
O	-0.0527448201	 1.4185621429	 0.4840379492	-0.41758
C	 0.0516001803	 0.0714253649	 0.0711992249	-0.163649
C	-1.3102584253	-0.5722115142	-0.0723235054	 0.160421
C	-2.0540730199	-1.192948947	 1.1216486815	-0.351781
C	-1.6743095903	-2.0398982952	-0.0428542792	 0.056264
O	-2.6776955	-2.3301073924	-0.9899166525	-0.263016
C	-3.1680358239	-1.120711979	-1.550106287	-0.189093
C	-2.2173162087	-0.0033538001	-1.1062873936	 0.334697
O	-2.1706015431	 1.1158287693	-1.5654179167	-0.341105
H	-0.605474758	 1.8566958066	-0.1772911284	 0.298307
H	 0.5951411673	-0.0160236396	-0.8832658327	 0.097556
H	 0.640628122	-0.4523215541	 0.8316536093	 0.107234
H	-1.4606837806	-1.2722205642	 2.0263599305	 0.137015
H	-3.1000776234	-0.9551622834	 1.2826704825	 0.131816
H	-0.9409415491	-2.8336252952	 0.0392679532	 0.120728
H	-3.1823913924	-1.1979592352	-2.6423303387	 0.146702
H	-4.1916016148	-0.9032054242	-1.2130420067	 0.135487
