18
gdb 56038	3.91176	0.95117	0.93591	3.6427	68.53	-0.2638	0.0586	0.3224	1326.1643	0.148651	-476.281536	-476.272679	-476.271734	-476.31666	31.832	
N	-0.1693991166	 1.1309710644	-0.6008377991	-0.560204
C	 0.0485411757	-0.0805606278	-0.0118119479	 0.494358
O	 1.0233681201	-0.3731309736	 0.6374392977	-0.394024
O	-1.0023028863	-0.909193272	-0.2775538744	-0.283241
C	-0.8312354978	-2.2900706238	 0.0996758803	 0.232715
C	-2.2365168776	-2.8770366521	 0.3483963716	-0.272509
C	-2.4180961051	-3.9046084106	-0.7918531078	-0.212317
C	-1.3203016665	-3.4943679867	-1.78027005	-0.086358
O	-0.2613643253	-3.0112281321	-0.9514940976	-0.236645
H	 0.4219920944	 1.888177196	-0.3057171469	 0.268492
H	-1.0847926403	 1.3460080258	-0.9562958079	 0.262646
H	-0.1394596006	-2.3202070822	 0.939974597	 0.120563
H	-2.2995382588	-3.3371616764	 1.3362609071	 0.116212
H	-2.9760263409	-2.0753172555	 0.3035093069	 0.118963
H	-2.2341947824	-4.919961068	-0.4298443111	 0.113123
H	-3.4167641408	-3.8793142501	-1.2337767241	 0.105425
H	-0.9224510586	-4.3173211135	-2.3778289191	 0.112567
H	-1.6669409627	-2.7020201917	-2.4590349846	 0.100234
