21
gdb 118765	2.55541	1.10566	0.9061	1.6757	75.74	-0.2478	0.0752	0.323	1371.474	0.180408	-461.336549	-461.326639	-461.325695	-461.371389	36.964	
C	-0.1858092859	 1.266801033	-0.432129741	-0.226182
O	-0.1030717181	-0.1238371772	-0.2255009275	-0.256969
C	 0.6401790481	-0.7994213695	-1.2264906784	-0.126531
C	 0.7151516793	-2.2604590879	-0.8034179169	 0.42167
O	 1.2717927256	-2.3567499936	 0.4867419754	-0.490905
C	-0.6085266094	-3.0512583733	-1.0647214274	-0.28204
C	 0.0187204201	-3.6210789174	-2.3563694967	 0.11639
O	-0.4511215746	-2.8763181359	-3.4710673083	-0.431442
C	 1.4156623133	-3.1694083863	-1.8413946873	-0.315392
H	 0.809950095	 1.7369688061	-0.4398728243	 0.106903
H	-0.6860524048	 1.5053384302	-1.3829038358	 0.110803
H	-0.7701742533	 1.6871281487	 0.3900923123	 0.128037
H	 0.1602219633	-0.7052009572	-2.2100842657	 0.111036
H	 1.6593834215	-0.3816802567	-1.2889545794	 0.084983
H	 0.8801101988	-1.6359482295	 0.9973842578	 0.282255
H	-0.7461488654	-3.819522508	-0.3012201867	 0.10495
H	-1.5298199122	-2.4800875487	-1.1927550643	 0.110426
H	-0.1057990479	-4.6969794724	-2.5296524261	 0.06759
H	 0.0981381521	-3.1022106548	-4.2290062095	 0.281441
H	 2.0850071471	-2.6963291558	-2.5671999551	 0.089066
H	 1.9473771275	-3.9746385341	-1.3283757252	 0.113912
