13
gdb 29262	3.24227	1.44079	0.99752	1.8868	64.81	-0.237	-0.0355	0.2015	1072.2749	0.090482	-489.93369	-489.926271	-489.925327	-489.965711	27.972	
O	-0.0891262681	 1.3524231157	 0.2112500734	-0.407369
C	-0.0012530259	 0.0129822097	 0.0371309129	 0.249723
C	 1.1392042679	-0.6784790847	-0.0916346546	-0.058154
O	 1.2037135524	-2.0389408679	-0.2676295127	-0.215311
C	 0.0671868313	-2.7909297129	-0.3235803538	 0.486905
O	 0.1214044602	-3.9786216738	-0.4757503313	-0.368634
N	-1.1084877967	-2.0806841905	-0.1904148499	-0.456055
C	-1.2828798978	-0.6997279268	-0.0080445337	 0.357538
N	-2.396674984	-0.0962749328	 0.1088085067	-0.513129
H	 0.7960816065	 1.7334316213	 0.2278709065	 0.304103
H	 2.128743285	-0.2397235384	-0.0707505938	 0.13409
H	-1.9347373378	-2.6600546551	-0.2344864236	 0.270083
H	-3.187597883	-0.7401030038	 0.0549779141	 0.216209
