21
gdb 83226	2.37676	1.58986	1.34902	1.3577	77.41	-0.2477	0.0669	0.3145	1069.7843	0.182401	-424.223942	-424.214986	-424.214042	-424.256742	35.601	
C	-0.0831679735	 1.5489940068	-0.0635786641	-0.450081
C	 0.0041254352	 0.022816879	-0.0361248398	 0.399891
O	-1.3081021626	-0.5482147202	 0.0982390056	-0.483982
C	 0.723352723	-0.5797025997	-1.2697823959	-0.254907
C	 1.3263985637	-1.917991442	-0.7873439914	-0.223531
C	 1.5602854669	-1.7462717864	 0.7090595721	-0.107241
C	 2.2590123013	-0.5001213456	 1.1955736382	 0.067207
O	 2.9612982003	 0.3671820282	 0.3445547451	-0.416449
C	 0.7606937276	-0.532468451	 1.1657405238	-0.080206
H	 0.9158079761	 1.9914310135	-0.082066751	 0.139989
H	-0.6262365319	 1.8920728439	-0.9535820057	 0.09606
H	-0.6164668332	 1.914004827	 0.8193928332	 0.115402
H	-1.8499457541	-0.1890363661	-0.6125453998	 0.270266
H	 0.0174730229	-0.7131495843	-2.0958144153	 0.077857
H	 1.5120846806	 0.0961252032	-1.6027697571	 0.110724
H	 0.6121706429	-2.7345263277	-0.9338772186	 0.109891
H	 2.2359407379	-2.1825354424	-1.3387394537	 0.085047
H	 1.6360359027	-2.6391061326	 1.3211017202	 0.078876
H	 2.6915446014	-0.5694828346	 2.1942982504	 0.087064
H	 3.7778078215	-0.0716316697	 0.0841575906	 0.288835
H	 0.2241657113	-0.5094656493	 2.1075364432	 0.089289
