17
gdb 51696	4.93265	0.81965	0.72827	3.1659	72.16	-0.2491	0.013	0.2621	1486.53	0.13688	-455.185073	-455.176476	-455.175532	-455.219763	30.655	
N	-0.1099962908	 1.2867854499	-0.1037042365	-0.437215
C	-0.0610414665	 0.0295404457	-0.1770178456	 0.121889
O	-0.9122980752	-0.7205994423	 0.5548145023	-0.185633
C	-0.9052700661	-2.1254224744	 0.3374131422	 0.109013
C	-1.2710456756	-2.8368562498	 1.6571861214	-0.194628
N	-1.9231361379	-4.0420821271	 1.1823894441	-0.307948
C	-2.4054024606	-3.9751084105	-0.1007406237	 0.405683
O	-3.0544858893	-4.8257465903	-0.6627384497	-0.369094
C	-1.9663196067	-2.6143656776	-0.6568018232	-0.357148
H	 0.6087594622	 1.6990206844	-0.6946455128	 0.233012
H	 0.6338618515	-0.5662585601	-0.7855092191	 0.089302
H	 0.0932765405	-2.4436055449	 0.0132885686	 0.099234
H	-0.3900172343	-3.0606870115	 2.265517235	 0.121602
H	-1.9397239496	-2.1920208001	 2.242894954	 0.131714
H	-2.2030743494	-4.7968710433	 1.788665554	 0.256768
H	-2.8284874715	-1.9383284012	-0.6422894121	 0.150915
H	-1.6208044206	-2.7024154768	-1.6877929888	 0.132533
