22
gdb 117341	3.78278	0.74337	0.71204	2.2261	81.1	-0.2467	0.0662	0.3129	1748.0374	0.191847	-441.548205	-441.537006	-441.536062	-441.586621	39.154	
C	-0.1178394591	 1.089565441	 0.7267171669	-0.370319
C	-0.1116633946	 0.1163870904	-0.4551884229	-0.142128
N	-1.3445705419	-0.6385998652	-0.5874636487	-0.357242
C	-1.4652000812	-1.9190292338	-0.1413260436	 0.516614
O	-0.5615018303	-2.5984863416	 0.2995128334	-0.422224
O	-2.7512718916	-2.3318090449	-0.2824774336	-0.294212
C	-3.0384482048	-3.6890172937	 0.1335607974	 0.157048
C	-3.2658226361	-3.731876351	 1.6414694049	-0.395209
C	-4.251755607	-4.1286655296	-0.6734827429	-0.393569
H	 0.8267583598	 1.6411098322	 0.7735134404	 0.117957
H	-0.9290956379	 1.8201839138	 0.6361748219	 0.11072
H	-0.2483450057	 0.549685529	 1.6690098233	 0.132968
H	 0.0724607269	 0.6579909984	-1.3906645707	 0.104893
H	 0.6863533867	-0.6197300735	-0.3375398752	 0.147347
H	-2.1933678447	-0.1677213804	-0.8551211754	 0.247429
H	-2.1672589311	-4.3002594559	-0.11807244	 0.108638
H	-2.3649844754	-3.411296457	 2.1688781733	 0.140874
H	-4.0985276637	-3.0797241958	 1.9249688275	 0.114857
H	-3.5047000023	-4.7522259992	 1.9579271142	 0.114657
H	-4.0472747062	-4.0684865493	-1.7458341412	 0.122066
H	-4.5119867975	-5.1625012084	-0.4279958693	 0.118242
H	-5.1165573623	-3.4950973754	-0.4515769299	 0.120594
