17
gdb 11506	4.48526	1.07569	0.96097	4.0771	68.98	-0.282	0.0354	0.3174	1206.8237	0.141246	-363.858334	-363.849757	-363.848813	-363.89228	30.131	
C	-0.2760305466	 1.476890086	 0.1283071697	-0.399168
C	 0.0923636787	-0.0036224532	-0.0904232807	-0.124908
C	 0.9847003046	-0.2451413151	-1.3352654211	-0.228441
C	 0.2785772268	 0.1112206021	-2.6219461624	 0.077694
C	 0.3082712617	-0.7732355946	-3.7933601357	-0.176945
O	-0.8488922509	-0.7041752677	-2.9580426229	-0.235397
C	 0.7543762608	-0.5429890482	 1.1015105334	 0.261955
N	 1.2899989331	-0.9604570788	 2.0369110609	-0.322913
H	 0.6233380589	 2.089196857	 0.2430034766	 0.134886
H	-0.8499899476	 1.8544430705	-0.7211999797	 0.134359
H	-0.884639876	 1.5951139925	 1.0277707023	 0.142224
H	-0.8295938628	-0.5794823415	-0.2370924462	 0.147406
H	 1.9068060301	 0.341238513	-1.2454577271	 0.120529
H	 1.2713428272	-1.3006677891	-1.3621624713	 0.12557
H	 0.1184927843	 1.1746512902	-2.8035979502	 0.100862
H	 0.189912734	-0.3546497576	-4.7915349798	 0.121265
H	 0.8652555635	-1.7077781355	-3.7437185558	 0.121021
