15
gdb 44128	2.50947	1.7273	1.35093	3.6427	70.42	-0.2305	0.0333	0.2637	963.097	0.113736	-416.802991	-416.795391	-416.794446	-416.835057	29.556	
O	-0.0003547926	-0.0168932389	-0.1698584714	-0.388501
C	-0.0145580539	 1.1758413531	 0.0069682417	 0.417654
N	-1.1406485441	 1.9905846515	 0.1558931285	-0.334198
C	-0.7944895421	 3.3705245834	 0.0664165719	-0.028114
C	 0.705230622	 3.3914348915	 0.0458418714	-0.028113
N	 1.0920397547	 2.0217136483	 0.1252531891	-0.334195
C	-0.0687902696	 3.8830241736	-1.1948608311	-0.28282
C	-0.0751751479	 3.1417445833	-2.4135943486	 0.303966
C	-0.0800363972	 2.4935737449	-3.4273910182	-0.405732
H	-2.0070345959	 1.6343712151	-0.2153737391	 0.261596
H	-1.3825108734	 4.0714690504	 0.6470845525	 0.118531
H	 1.2891922081	 4.1087162015	 0.6104334879	 0.118531
H	 1.9575259605	 1.6896418062	-0.2697306728	 0.261597
H	-0.0852005515	 4.9653304444	-1.2912509452	 0.11818
H	-0.0843722071	 1.9249343318	-4.3241471267	 0.201618
