16
gdb 131606	2.77149	1.33015	0.93246	4.9472	66.26	-0.2527	-0.001	0.2517	1186.3274	0.125606	-471.18978	-471.181502	-471.180558	-471.222968	30.406	
O	 0.0056440848	 0.3295024873	 1.2705798095	-0.411008
C	-0.136243501	 0.2816657125	-0.1463857705	-0.11315
C	-1.411459734	-0.4618286589	-0.5904493676	-0.013472
O	-1.565787897	-0.3862528659	-1.9972337915	-0.412394
C	-1.4439340424	-1.8861969357	-0.1152954959	 0.312665
C	-1.9563066535	-3.0362576015	-0.6750239311	-0.167437
N	-1.7051217368	-4.0835384258	 0.1601623688	-0.189042
N	-1.0685397466	-3.6480612192	 1.2098705622	-0.11348
N	-0.9074337773	-2.3221274217	 1.0512373652	-0.244685
H	-0.6339193685	 0.9601825508	 1.6176710103	 0.297993
H	-0.1468817555	 1.2846874265	-0.5898804383	 0.118893
H	 0.7474015797	-0.2454875587	-0.5220757833	 0.121452
H	-2.2768462621	 0.0818764679	-0.1846714485	 0.109437
H	-0.9355297143	-0.9984517154	-2.3953004988	 0.28937
H	-2.4836000946	-3.1621893035	-1.6062063521	 0.128723
H	-0.4177274811	-1.7581271287	 1.7318474216	 0.286135
