19
gdb 42838	2.98937	1.77744	1.61832	3.027	77.88	-0.2294	0.0015	0.231	915.6727	0.163033	-385.858998	-385.852624	-385.85168	-385.889399	27.592	
O	 0.0016169596	 0.0320233335	 0.1116296166	-0.336754
C	-0.0154204994	 1.2213829392	-0.0092362347	 0.431978
C	-1.0952044047	 2.3230812812	 0.0497497223	-0.137644
C	-0.0253877443	 3.0051763212	 0.9678292105	-0.251965
C	 1.0366539035	 2.3507065848	 0.0210620326	-0.137644
C	 0.9866771648	 3.0528233175	-1.4025131254	-0.027573
C	-0.0724829698	 4.1932533655	-1.3877329603	-0.220762
C	-1.1017550541	 3.025760141	-1.3744095356	-0.027573
C	-0.0597715807	 2.2890639811	-2.2768275936	-0.23171
H	-2.088504123	 2.0942479516	 0.4347104186	 0.081185
H	-0.0380692714	 4.0881536643	 1.0682524659	 0.111856
H	-0.0061505721	 2.554717277	 1.9635756248	 0.114778
H	 2.0455471565	 2.1478211083	 0.3790781785	 0.081185
H	 1.9856219766	 3.2440661182	-1.7963778612	 0.069565
H	-0.0716878696	 4.9479178072	-0.6019341978	 0.096505
H	-0.0921005647	 4.7042475609	-2.353429131	 0.100703
H	-2.1155543995	 3.1909208155	-1.7411886559	 0.069565
H	-0.0784111813	 2.6611173281	-3.3037864681	 0.092705
H	-0.0457741044	 1.1970108239	-2.2882632859	 0.121601
