18
gdb 55782	4.51397	0.98898	0.82761	1.2729	76.87	-0.208	-0.0049	0.2032	1384.6264	0.149265	-435.327533	-435.318637	-435.317692	-435.362477	31.759	
C	-0.0199583671	 1.4674207265	 0.1338470163	-0.499569
C	-0.480635871	 0.1140683529	-0.3757626832	 0.415357
O	-0.8520977398	-0.0700267536	-1.5207635541	-0.360515
N	-0.4382589675	-0.8818822199	 0.574240135	-0.418392
C	-0.7635756397	-2.2263409263	 0.40387395	 0.491091
N	-0.4658761944	-3.0969964215	 1.2961292503	-0.360997
C	-1.0130343852	-4.3660692019	 0.7858614107	-0.156134
C	-1.3711760085	-4.1024390475	-0.7052533461	-0.180792
N	-1.4636224734	-2.6396354663	-0.7069549862	-0.342178
H	-0.11996405	 2.1957076419	-0.6696398322	 0.157465
H	-0.6190445862	 1.7860485378	 0.9928265079	 0.147483
H	 1.0264392785	 1.4242806135	 0.4542082692	 0.147586
H	-0.0433237196	-0.6816533415	 1.480902151	 0.267149
H	-0.2909633399	-5.1787086115	 0.9054350525	 0.107279
H	-1.907896424	-4.6388837294	 1.3620587018	 0.105641
H	-0.5789835957	-4.4554137546	-1.381000819	 0.102655
H	-2.3136824877	-4.5640387474	-1.0109890916	 0.111001
H	-1.3699306487	-2.0867954411	-1.5480725623	 0.265869
