16
gdb 4794	5.00344	1.38047	1.09127	1.2867	68.31	-0.162	0.0719	0.234	1056.5594	0.131205	-379.93638	-379.928055	-379.927111	-379.968914	30.435	
C	-0.6202970628	 0.5974995327	 0.2793291737	-0.243449
O	 0.5691684486	 0.8269944316	-0.4543657205	-0.260399
C	 0.9329407167	-0.1804167336	-1.2788545891	 0.43961
C	 0.3920396136	-1.4163947242	-1.558206327	-0.372582
C	 1.2581758668	-2.0255360288	-2.5257027985	 0.261536
N	 1.0145266556	-3.2723952888	-3.1396680023	-0.605475
C	 2.2808453897	-1.1487512466	-2.7901561812	-0.177635
N	 2.0595684535	-0.0079957571	-2.0189686101	-0.337651
H	-1.4759679983	 0.4483463078	-0.3915422615	 0.126825
H	-0.5206947366	-0.281857229	 0.9285899073	 0.124277
H	-0.7850838389	 1.4861061911	 0.8904635222	 0.132379
H	-0.5127501811	-1.8366340255	-1.1510196682	 0.085177
H	 0.6899412664	-3.9627578705	-2.4728636908	 0.23559
H	 1.8425970076	-3.6374190811	-3.5942539095	 0.233556
H	 3.1255581886	-1.2172061755	-3.4545621773	 0.09978
H	 2.6429927504	 0.8076175077	-1.9757777771	 0.258458
