18
gdb 47744	2.55077	1.73454	1.16339	3.7766	72.27	-0.257	0.001	0.258	1058.4927	0.150117	-439.107669	-439.099997	-439.099052	-439.139997	29.598	
O	 0.0579087495	 0.0757454537	 0.4846600799	-0.352872
C	 0.0344310712	 1.2039929707	 0.0577956342	 0.392464
O	-1.1427765357	 1.7378698736	-0.3260199439	-0.232071
C	-1.2326605321	 2.9952976967	-1.026017037	-0.060242
C	-0.1324655743	 3.9795540833	-0.661752508	-0.233794
C	 1.2240889811	 3.3050034917	-0.8690612613	-0.290332
C	 1.2766022171	 2.0574568701	-0.0144354616	 0.177427
C	 2.096071271	 2.0050842173	 1.2420624865	-0.25687
N	 2.5441616646	 1.3198030177	 0.0334035058	-0.353166
H	-1.2087105794	 2.7774982146	-2.1015625124	 0.119201
H	-2.2254511371	 3.3813848558	-0.7828437882	 0.126256
H	-0.2378609185	 4.8721585331	-1.2869450752	 0.11215
H	-0.2449637791	 4.2952163828	 0.3822592856	 0.116109
H	 1.3478473469	 3.0330261846	-1.9253237431	 0.1135
H	 2.05513468	 3.9681748495	-0.6142818999	 0.113322
H	 2.6695062088	 2.8863787246	 1.5182826918	 0.120386
H	 1.7153785868	 1.4093466077	 2.065720188	 0.13746
H	 2.3154338492	 0.3295712425	 0.1225280988	 0.25107
