19
gdb 9905	5.27632	0.99136	0.90384	2.7137	78.72	-0.2255	0.0253	0.2508	1334.9848	0.16332	-365.044865	-365.035708	-365.034764	-365.079054	32.882	
C	-0.2278658103	 1.3069379471	-0.0174463157	-0.24813
O	 0.2479517756	-0.0249014607	 0.1086838054	-0.195669
C	 0.6023504931	-0.6261811559	-1.0504669537	 0.100672
N	 1.0347750353	-1.8073773799	-1.0329485198	-0.271396
C	 1.4189005382	-2.4759513743	-2.2345157134	 0.404206
C	 1.3097807838	-1.7623432128	-3.5686513453	-0.474281
C	 2.5628127296	-3.4546963884	-2.0420187666	-0.293578
C	 1.1593596288	-3.9710070266	-2.2033937255	-0.293579
H	 0.5346743473	 1.9709291878	-0.4442290213	 0.123411
H	-1.1332781964	 1.3568976993	-0.6356876257	 0.123415
H	-0.4681441954	 1.6450684304	 0.9914003794	 0.144076
H	 0.4725580901	 0.0045233366	-1.9391258127	 0.074116
H	 1.9317754045	-0.8595497775	-3.5965303916	 0.115849
H	 1.6436388634	-2.4171630051	-4.377757831	 0.115713
H	 0.2759612233	-1.4685845805	-3.7868559812	 0.115848
H	 3.2601217345	-3.5814353087	-2.8632162884	 0.107015
H	 3.0038621994	-3.4925921289	-1.0537526664	 0.122649
H	 0.6588058661	-4.3552892673	-1.3233911728	 0.122649
H	 0.8880539492	-4.4541013947	-3.1359600637	 0.107014
