16
gdb 56463	2.73432	1.11163	0.81864	5.2231	73.76	-0.2516	-0.036	0.2157	1348.3815	0.121368	-437.903016	-437.893314	-437.89237	-437.938986	33.83	
C	-0.0105445742	 1.6368440267	 1.1478492908	-0.383589
C	-0.1091763387	 0.5363492356	 0.0697593435	-0.312788
C	 0.7043387257	-0.6301366759	 0.3944801773	 0.304639
C	 1.3637633807	-1.5978416006	 0.6720684996	-0.433864
C	-1.606613843	 0.2277564028	-0.2185590565	 0.462069
O	-2.3982297965	 1.1222430342	-0.3628782391	-0.310259
N	-1.915851917	-1.1251597198	-0.3175024366	-0.372561
C	-3.1537710592	-1.6967458371	-0.6082428083	 0.163748
O	-4.1751171659	-1.114078464	-0.8401578598	-0.247411
H	 1.0187008405	 1.9916486617	 1.2319293246	 0.129408
H	-0.6630202182	 2.4653001972	 0.8692708522	 0.155243
H	-0.3246300132	 1.2515636207	 2.1214067513	 0.133723
H	 0.2582217029	 0.958512154	-0.8762895557	 0.149236
H	 1.9642095632	-2.4392821384	 0.9179862164	 0.209789
H	-1.1516955532	-1.7654265614	-0.1421420891	 0.263824
H	-3.0686883641	-2.8026263958	-0.5989950806	 0.088793
