16
gdb 133529	2.25793	1.34556	1.27195	1.9063	57.72	-0.2667	-0.0387	0.2281	1062.5634	0.117322	-569.414895	-569.40527	-569.404326	-569.449643	34.123	
C	 0.0038075686	 1.6017458784	-0.0310455843	-0.431836
C	-0.0235968614	 0.0697110231	-0.0396427311	 0.002382
C	 0.6195318832	-0.5214750083	 1.2354154752	-0.440093
C	-1.4651433893	-0.4535618101	-0.1057453623	 0.142248
O	-2.4343761846	 0.2237913016	 0.1056257562	-0.242927
C	 0.720571416	-0.4656778437	-1.2664947552	 0.281911
F	 1.9932800213	-0.0470438563	-1.3009196502	-0.078278
F	 0.7417826053	-1.8107010757	-1.2868463114	-0.084721
F	 0.1309261444	-0.0637222049	-2.4041258069	-0.079479
H	 1.0258245648	 1.9668949462	 0.0927458609	 0.127825
H	-0.4039885012	 2.0067927525	-0.9596143201	 0.140987
H	-0.610311269	 1.9714297604	 0.7916756402	 0.140554
H	 0.1256096022	-0.1127886024	 2.1202644588	 0.138702
H	 0.5386524473	-1.6111494628	 1.2623284278	 0.13822
H	 1.6793111749	-0.2567069521	 1.2750931558	 0.143756
H	-1.5521161627	-1.538992956	-0.3253033034	 0.100749
