21
gdb 78215	2.28064	1.52722	1.44029	2.6251	77.58	-0.2357	0.0575	0.2932	1073.2281	0.181501	-424.196349	-424.187261	-424.186317	-424.229049	36.389	
C	-0.1537316178	 1.6008526297	-0.0619184643	-0.45967
C	 0.0122389579	 0.0805968006	-0.0521091967	 0.278666
C	-1.3219070866	-0.6036008885	 0.2612077024	-0.43908
C	 0.6918315471	-0.5717316854	-1.2701045144	-0.13303
C	 2.1508259822	-0.2405990549	-1.3964230612	 0.114286
O	 2.7391558048	 0.9982271775	-1.1272558433	-0.438457
C	 1.7606177008	-1.2365267864	-0.3503130743	-0.135871
C	 1.1554090173	-0.5318423267	 0.8550010182	 0.037637
O	 2.0833247061	 0.3497247337	 1.4887213439	-0.434834
H	 0.77367972	 2.1099889517	-0.3222475244	 0.139461
H	-0.91132888	 1.8904551927	-0.798840127	 0.115733
H	-0.5013120016	 1.9644691735	 0.9141049376	 0.092578
H	-2.0734468801	-0.357233824	-0.4969542115	 0.115497
H	-1.2183186234	-1.6936601248	 0.2842584771	 0.114479
H	-1.7104789643	-0.2783862306	 1.2336294913	 0.106394
H	 0.142526347	-1.029933233	-2.0863581209	 0.080667
H	 2.6040316715	-0.6976220964	-2.2743562668	 0.099747
H	 2.8150708067	 1.0650977904	-0.1645655825	 0.296703
H	 2.1396751049	-2.2514628104	-0.3370850185	 0.085837
H	 0.7410692734	-1.225184931	 1.5969188629	 0.07346
H	 1.6063541238	 0.8841586123	 2.1325876922	 0.289798
