19
gdb 74718	2.46995	1.87075	1.45086	1.4363	79.38	-0.216	0.	0.216	984.4986	0.159504	-385.883515	-385.875571	-385.874627	-385.91531	32.285	
C	-0.0089201747	 1.5075350074	 0.0427109105	-0.524431
C	 0.0290705146	 0.0219919092	-0.0539009331	 0.307626
C	 0.0199634018	-0.7949727805	-1.107596593	-0.204368
C	 0.0027124416	-2.2409265279	-0.5719038554	-0.120867
C	 0.9285270926	-2.035819995	 0.6683667426	-0.220407
C	 0.0323810367	-0.8923500987	 1.2060785659	 0.292689
O	 0.4778067097	-0.3137368351	 2.4055193817	-0.503747
C	-1.3172557275	-1.6450274034	 1.2321258452	-0.151207
C	-1.3323137185	-2.4528030544	 0.173655374	-0.072136
H	 0.8138353166	 1.8817841386	 0.6631624879	 0.135939
H	 0.0560474997	 1.9786710904	-0.9416547561	 0.126969
H	-0.9400818832	 1.8526776403	 0.5157169062	 0.11607
H	-0.0298164684	-0.5282688289	-2.1556253816	 0.092396
H	 0.2792266717	-3.0165321496	-1.2848481776	 0.061146
H	 0.9621107082	-2.8970793106	 1.3405287087	 0.096854
H	 1.9356505354	-1.7006544451	 0.4084275985	 0.097388
H	-0.1959046963	 0.2978225104	 2.7192704121	 0.278376
H	-2.0878769631	-1.478612931	 1.9743869328	 0.092693
H	-2.1281898871	-3.1042626761	-0.1624640193	 0.099015
