21
gdb 105886	2.02512	1.48689	1.33086	1.1178	79.02	-0.2368	0.0701	0.3069	1145.7273	0.180734	-424.182791	-424.173061	-424.172117	-424.217051	36.259	
C	-0.250321989	 1.3530164467	-0.1411261899	-0.257254
O	 0.2307823073	 0.0324361657	 0.0659007086	-0.284037
C	 0.7839475575	-0.5254015046	-1.0691139247	 0.409973
C	-0.0682100088	-1.066053418	-2.1900249697	-0.063234
C	 0.0196375179	-0.718198627	-3.6629160454	-0.420072
C	 0.852516035	-2.0084996045	-1.4416343612	-0.167253
C	 2.3020026949	-1.8466086321	-1.9133041889	-0.281559
C	 2.2531291113	-0.3523757007	-1.4327256035	 0.036068
O	 2.5354234065	 0.6991827493	-2.3363337329	-0.432581
H	 0.5486346745	 2.024481784	-0.4814928423	 0.123906
H	-1.0599029135	 1.3707194046	-0.8840311436	 0.109228
H	-0.6353812235	 1.7062706883	 0.8182949283	 0.121471
H	-1.0898124259	-1.1818920203	-1.8294710426	 0.08962
H	 1.0375728333	-0.4719474103	-3.9663250625	 0.135997
H	-0.3413652653	-1.5477202712	-4.2820357413	 0.107777
H	-0.6014387071	 0.1563203434	-3.8849365521	 0.114045
H	 0.4689808037	-2.8527580735	-0.8825443389	 0.09298
H	 3.0218219587	-2.448360239	-1.3539466066	 0.100649
H	 2.4762190596	-1.988160617	-2.9834951237	 0.100029
H	 2.833276199	-0.2385284642	-0.5072746883	 0.080623
H	 3.4905588237	 0.7608886704	-2.4395119489	 0.283625
