19
gdb 63996	3.58955	1.00147	0.94092	1.6589	87.11	-0.226	-0.0165	0.2095	1316.9245	0.157311	-385.879848	-385.870696	-385.869752	-385.913436	35.528	
C	-0.1342662696	 1.533957979	-0.0488106755	-0.436846
C	 0.0033199471	 0.0092596874	-0.0137078599	 0.399747
O	-1.28263695	-0.6035488727	 0.0200629045	-0.478562
C	 0.8817383604	-0.4950218453	-1.2023158725	-0.313354
C	 2.2323487281	-0.7215166471	-0.5859695939	-0.170409
C	 2.1860884081	-0.6992488231	 0.7558921992	 0.204758
C	 0.7726648885	-0.4516885947	 1.2504905795	-0.353822
C	 3.2689705341	-0.9119697282	 1.6421783714	 0.184574
C	 4.1593037854	-1.0832466685	 2.436418193	-0.405032
H	 0.8489419154	 2.0146017207	-0.0209554997	 0.126025
H	-0.6368408059	 1.8591646738	-0.9683410554	 0.10342
H	-0.7190207526	 1.8832171848	 0.8071747628	 0.1241
H	-1.8075416337	-0.2329074398	-0.697401733	 0.273805
H	 0.4617746864	-1.4326286828	-1.5916038967	 0.117469
H	 0.9059117055	 0.214744049	-2.0388458873	 0.097314
H	 3.128815678	-0.911697981	-1.1644259027	 0.099712
H	 0.7312982217	 0.2855428274	 2.0584623677	 0.108758
H	 0.3253721414	-1.3760877338	 1.6336742449	 0.128361
H	 4.9534984814	-1.2401175254	 3.1232455035	 0.189982
