19
gdb 42391	3.56695	0.88262	0.78234	1.9338	76.29	-0.2473	-0.0255	0.2218	1495.3447	0.157432	-423.002503	-422.993349	-422.992405	-423.038217	32.843	
O	 0.4649335803	-0.2132639542	-1.3544643278	-0.304902
C	 0.1162643526	 0.84841218	-0.8899363168	 0.356294
C	 1.0117641088	 1.7189863443	-0.0213205649	-0.342164
C	 2.4195650208	 1.1885594687	 0.0981177303	 0.046769
C	 3.4758741018	 1.6174677826	-0.8862897793	-0.249293
C	 3.5347073649	 2.0998543681	 0.5428455486	-0.288369
C	-1.2764082879	 1.3498918428	-1.1793127116	-0.004773
C	-2.1912445163	 1.7708112859	-0.0972862148	-0.177775
O	-1.564946708	 2.7291982475	-0.9361475545	-0.217398
H	 0.9958602686	 2.7368322496	-0.4297295145	 0.137188
H	 0.5388086381	 1.8099769873	 0.9683270884	 0.122895
H	 2.4756998203	 0.1565325575	 0.428146001	 0.097301
H	 4.1998733807	 0.8811977522	-1.2157358386	 0.116429
H	 3.1959190944	 2.3352771643	-1.6507111425	 0.109764
H	 3.2962752417	 3.1408481588	 0.7368187455	 0.108938
H	 4.3008114787	 1.6941028278	 1.1942506355	 0.11237
H	-1.711175195	 0.9264288262	-2.0833407756	 0.118734
H	-3.2625048687	 1.6412716558	-0.2421717546	 0.132205
H	-1.8531330059	 1.7542033648	 0.9371954363	 0.125787
