20
gdb 55444	3.29697	1.0923	0.96625	3.2351	81.29	-0.2321	0.0143	0.2463	1290.1287	0.172389	-403.205498	-403.196363	-403.195419	-403.240458	33.699	
N	 0.0052804506	 1.3187877637	-0.2767377609	-0.52148
C	 0.062472918	 0.0190363906	 0.1392497121	 0.394312
O	 1.090166934	-0.4854496983	 0.5458591504	-0.359071
C	-1.2837991597	-0.7253054856	 0.0882039812	-0.134426
C	-1.0661018682	-2.231276555	-0.120318726	-0.207191
C	-2.3275016718	-3.0339890227	 0.2140461175	-0.220114
C	-2.7376804599	-2.8292289673	 1.6788507809	-0.236849
C	-2.6771789629	-1.378288409	 2.0763449173	-0.058018
C	-2.0518571831	-0.4415770075	 1.3655745556	-0.041538
H	 0.847359375	 1.8696807422	-0.2434822146	 0.259202
H	-0.8264142448	 1.7260959324	-0.6653255672	 0.256898
H	-1.8572961605	-0.313928425	-0.7576124373	 0.075537
H	-0.7493566132	-2.4196267795	-1.1516950374	 0.092184
H	-0.2364420414	-2.5390679496	 0.5239190823	 0.129894
H	-3.1509250683	-2.7141537211	-0.4382302782	 0.09372
H	-2.162674708	-4.0975249551	 0.0117927613	 0.09369
H	-3.7490077059	-3.2183998533	 1.8515052243	 0.099856
H	-2.0822690255	-3.4140849258	 2.3413631598	 0.113434
H	-3.1822006694	-1.0958677999	 2.9974738576	 0.085696
H	-2.0614936952	 0.5917815357	 1.7047247811	 0.084265
