21
gdb 94286	2.82272	1.46006	1.18347	1.5829	81.99	-0.2201	0.0709	0.2909	1135.4046	0.182635	-387.039023	-387.03056	-387.029616	-387.072426	32.661	
C	-0.3487185831	 1.4351470005	 0.0326660809	-0.404948
C	-0.0232635746	-0.052916896	-0.0234089498	-0.134658
C	 1.3081383095	-0.4272225265	-0.7162445144	-0.087217
O	 1.8637489424	-0.9513476554	 0.5099246754	-0.325406
C	 0.6377631492	-0.698268237	 1.2048783355	 0.480987
C	 0.7388379453	-0.3596744418	 2.654503807	-0.143904
C	-0.6289983526	-0.0299494641	 3.2620619099	-0.234742
C	-1.1847010625	-1.4000912457	 2.7491434007	-0.236843
C	 0.195126482	-1.738450529	 2.1769045289	-0.14249
H	 0.4796947723	 2.0010172376	 0.4712770911	 0.123752
H	-0.5294579318	 1.8271877007	-0.974423158	 0.114627
H	-1.2449915314	 1.6314923657	 0.6283539527	 0.122052
H	-0.8812753808	-0.6197729593	-0.3963058448	 0.079658
H	 1.2435295549	-1.1971624744	-1.4942705106	 0.100476
H	 1.8917508083	 0.4208453994	-1.0951781459	 0.099232
H	 1.7049051582	-0.1177804966	 3.0826023459	 0.091558
H	-0.5968755372	 0.0079389836	 4.3532675927	 0.107516
H	-1.1225394383	 0.8782678995	 2.9033995937	 0.097192
H	-1.4860775745	-2.0584783587	 3.5664179981	 0.107125
H	-2.0050424643	-1.3583467797	 2.0236722599	 0.093791
H	 0.6798690891	-2.7076966627	 2.1881248608	 0.092242
