19
gdb 16064	3.63214	1.63426	1.40194	1.9765	70.97	-0.2304	0.0805	0.311	964.4633	0.165767	-365.015807	-365.007667	-365.006723	-365.048182	30.857	
C	-0.0312021021	 1.4914272864	-0.2098644556	-0.428881
C	 0.0533714313	 0.0271897741	 0.1561327786	-0.024154
N	 1.2468899531	-0.8299635075	-0.0532111395	-0.203847
C	 2.4591351344	-0.006077636	 0.3011020237	-0.151763
C	 1.9727953914	 0.2225997488	 1.7513748185	-0.306504
C	 0.7047866153	-0.5399493905	 1.3566039844	 0.289
C	 0.1327721848	-1.6666856534	 2.1695570061	-0.157195
O	 1.113101355	-2.6522123539	 2.4551439769	-0.418022
H	 0.7706957248	 2.0945369514	 0.2199438143	 0.125107
H	-0.0054258225	 1.6172535106	-1.2978180426	 0.129202
H	-0.980241326	 1.9032656767	 0.1487017159	 0.124975
H	-0.8294559349	-0.5293967076	-0.1560640367	 0.092236
H	 3.3518725528	-0.6300904752	 0.2285619997	 0.109657
H	 2.6003016049	 0.8758220341	-0.3308143428	 0.104277
H	 2.5609163242	-0.3342057295	 2.4819227386	 0.125078
H	 1.8446025189	 1.2503508639	 2.1034361436	 0.09906
H	-0.2228128951	-1.2982232763	 3.1391372699	 0.11111
H	-0.7304404796	-2.1016686346	 1.642206717	 0.090297
H	 1.4714032294	-2.9204957717	 1.60013825	 0.290368
