14
gdb 43512	2.95898	1.31012	0.95537	4.294	69.49	-0.2813	-0.0315	0.2497	1149.0929	0.102769	-432.935017	-432.927295	-432.926351	-432.968085	28.133	
N	-0.0976212816	 1.3119558339	 0.2673434778	-0.515736
C	-0.0048510684	 0.0668365129	 0.0660672911	 0.390828
C	-1.1987668321	-0.8498500383	-0.1460227273	-0.295676
C	-0.6198130733	-2.2829562215	-0.062995688	-0.286414
C	-1.1285863259	-3.2058788412	-1.0686918215	 0.292489
N	-1.5553548461	-3.9176358916	-1.8718662923	-0.309529
C	 0.9178701391	-2.0900614412	-0.1588993148	 0.42896
O	 1.7543301156	-2.9415697368	-0.2810979368	-0.328937
N	 1.1380156607	-0.7327574529	-0.0272291723	-0.365645
H	 0.8137376279	 1.7611077274	 0.3685481091	 0.220894
H	-1.9744680535	-0.6524831671	 0.5935441309	 0.159492
H	-1.6243374819	-0.654523064	-1.13358866	 0.168982
H	-0.8043889456	-2.7212041008	 0.9251718724	 0.168165
H	 2.0796198751	-0.3686332487	 0.0074358418	 0.272125
