18
gdb 92814	2.78865	1.84978	1.63049	3.5646	74.71	-0.2315	-0.028	0.2034	910.2811	0.148539	-401.864431	-401.857364	-401.85642	-401.895502	29.003	
C	-0.1624902248	 1.6105402848	-0.0800915579	-0.383982
C	 0.0199173484	 0.0889770576	-0.0211613521	-0.021022
C	 0.7249606662	-0.4761049011	-1.3155118595	-0.181793
N	 2.0924092817	 0.0677104142	-1.2475597632	-0.212858
C	 2.5948861831	-0.3019443346	-0.1559722759	 0.308533
O	 3.1481392205	 0.5965613257	 0.7667222119	-0.267926
C	 2.2618266122	-0.045063409	 1.7366341786	 0.074698
C	 0.8194752402	-0.4017839209	 1.2171816985	-0.056047
C	 2.030336347	-1.2462055792	 0.9091379123	-0.254612
H	 0.8022054949	 2.1117803362	-0.1876883691	 0.152525
H	-0.7924389007	 1.8959152831	-0.9290998886	 0.111206
H	-0.6423564413	 1.9782567105	 0.8327008994	 0.108456
H	-0.9719700422	-0.3778327859	 0.0516356786	 0.071789
H	 0.6718945228	-1.5736882584	-1.3038479691	 0.103404
H	 0.2382224622	-0.1188301929	-2.2257923906	 0.10989
H	 2.5095626201	 0.0962418758	 2.7805503185	 0.123248
H	 0.2025992289	-0.752139484	 2.0437447408	 0.098302
H	 2.1967832909	-2.303612882	 1.0590961171	 0.11619
