18
gdb 6711	5.98698	0.80225	0.73685	1.658	71.2	-0.2596	0.0294	0.289	1504.7286	0.14985	-384.888575	-384.87874	-384.877796	-384.923821	34.362	
C	 0.1715304613	 0.4226292456	-0.8029331004	-0.399891
C	 0.0505008829	-0.0890213411	 0.6287760725	 0.10649
O	 0.2241604643	 0.9438627984	 1.5920349796	-0.429439
C	-1.2802248222	-0.800925711	 0.8863335406	-0.053432
O	-1.3798670493	-1.9101627544	 0.0172158404	-0.2459
C	-2.5770158661	-2.6400156619	 0.1996764279	-0.20103
C	-2.620731906	-3.767363231	-0.722200626	 0.277086
C	-2.6821934145	-4.7032745016	-1.4718354174	-0.412011
H	 1.1441140235	 0.8969584159	-0.958445363	 0.122661
H	 0.0539018794	-0.3992055495	-1.5132282481	 0.142391
H	-0.6114448878	 1.163177586	-1.0148934777	 0.100231
H	 0.8560986454	-0.8047411361	 0.8280187426	 0.102759
H	-0.3580659286	 1.6720368525	 1.3485662767	 0.27834
H	-1.3218844217	-1.1175328618	 1.9402221189	 0.098511
H	-2.1179987015	-0.0983898504	 0.7182932108	 0.072863
H	-2.650256126	-3.0058680839	 1.2381297567	 0.12078
H	-3.453601709	-1.990316571	 0.0328712351	 0.11833
H	-2.7299199243	-5.5299643345	-2.1367192894	 0.20126
