13
gdb 33272	2.70884	0.84867	0.66955	0.3154	91.17	-0.253	-0.025	0.2279	1586.8488	0.084518	-345.011408	-345.001944	-345.001	-345.046084	34.123	
C	 0.0270377929	-3.7981729654	 0.0281652916	-0.550709
C	 0.0284425797	-2.5913836054	 0.0029911726	 0.300318
C	 0.0292623392	-1.2308368257	-0.0233951621	-0.280747
C	 0.0326955189	-0.0232367277	-0.0516909911	 0.501115
C	 0.0230842012	 1.4470111178	-0.0616047137	-0.597034
C	 1.3894186844	 1.9936890899	-0.0129676464	 0.350705
C	 2.4988702036	 2.445753351	 0.0446591153	-0.430484
C	-0.7324155274	 1.9717434818	-1.2113726334	 0.3507
C	-1.3615403594	 2.4057733219	-2.1357022716	-0.43047
H	 0.0271510126	-4.8598064061	 0.0485384477	 0.196006
H	-0.4966985045	 1.7773503183	 0.8526474764	 0.17405
H	 3.4833370232	 2.8422947973	 0.0878755429	 0.208274
H	-1.9130165746	 2.7860140722	-2.9600678182	 0.208274
