18
gdb 100209	2.59386	1.12905	0.96153	2.9812	77.59	-0.2774	0.0224	0.2998	1269.4871	0.14465	-401.927942	-401.917786	-401.916842	-401.962886	36.865	
C	 0.0050560367	 1.5867202151	 0.0118986854	-0.41245
C	 0.017894939	 0.044986432	-0.0027790783	 0.012848
C	 0.7220296699	-0.4926510946	 1.2773277574	-0.07009
O	 2.067961387	-0.0940566733	 1.3644715254	-0.417911
C	-1.4300503841	-0.5276195974	-0.0130603591	-0.369545
C	-2.2275663367	-0.0809794896	-1.1518315626	 0.279165
N	-2.858593398	 0.280620601	-2.0495442633	-0.310121
C	 0.7618725404	-0.4504038312	-1.164148749	 0.345262
C	 1.4154124515	-0.8731004609	-2.081080469	-0.488807
H	 1.0239336808	 1.9601579516	 0.1255131159	 0.144337
H	-0.4213148794	 1.9860919893	-0.910722202	 0.148699
H	-0.5910220571	 1.9476721417	 0.8569590386	 0.117317
H	 0.2194110607	-0.077727012	 2.1578202108	 0.113995
H	 0.6186511947	-1.5885801634	 1.3096141579	 0.095486
H	 2.5200019396	-0.4407647383	 0.5850133829	 0.289771
H	-1.3964984725	-1.6222051168	-0.0189987644	 0.158124
H	-1.9397468297	-0.221787551	 0.9082557838	 0.152775
H	 1.965483687	-1.233849942	-2.9156264705	 0.211146
