15
gdb 123689	4.07257	1.5733	1.23051	2.4907	70.34	-0.2357	0.0148	0.2505	956.8363	0.116466	-416.808031	-416.801815	-416.800871	-416.838492	25.21	
C	-0.0545822622	 1.4854727632	 0.0025382432	-0.381284
C	 1.4251252397	 1.9032693281	-0.0269908029	 0.0585
O	 2.1815836637	 1.5100213166	 1.1176277291	-0.251524
C	 2.3056133005	 0.7088381331	-0.0817551576	-0.168692
C	 1.399405675	-0.4579493845	-0.0684151797	 0.281839
C	 1.3207494971	-1.8293040807	-0.0542609233	-0.226913
N	-0.0106293858	-2.1112281578	 0.0379700289	-0.185489
N	-0.806642039	-1.0119137288	 0.0879142661	-0.325503
C	 0.0597809507	-0.0168296658	 0.0171107771	 0.33278
H	-0.5636083321	 1.8883674709	 0.8838450079	 0.136799
H	-0.5806702766	 1.8584162768	-0.8837249189	 0.1212
H	 1.705947903	 2.8598881053	-0.4606480215	 0.096954
H	 3.2891186066	 0.7093805984	-0.5401381235	 0.097381
H	 2.0584520285	-2.6146581204	-0.0984521273	 0.139386
H	-0.4418130889	-3.0196541144	 0.0540252724	 0.274564
