15
gdb 1394	6.62583	1.42684	1.22993	0.1459	68.84	-0.2592	0.0391	0.2983	942.8225	0.122016	-271.319942	-271.311759	-271.310815	-271.352034	29.706	
C	-0.0515676713	 1.578691978	-0.0314080522	-0.386294
C	-0.03353674	 0.0395643234	 0.0055515818	-0.156309
C	 0.764545978	-0.5037194217	 1.2286854058	-0.349507
C	 2.1705306294	-0.1220478108	 1.2062823429	 0.303368
C	 3.329337742	 0.1953921983	 1.1640440319	-0.446975
C	-1.3875556241	-0.5094006621	 0.0168506796	 0.321316
C	-2.5029078884	-0.9567893279	 0.0515960765	-0.462385
H	 0.9707580711	 1.9647421391	-0.0470162425	 0.133192
H	-0.5779396156	 1.9362557434	-0.9196919309	 0.126662
H	-0.5626336162	 1.9787645224	 0.8497822768	 0.124634
H	 0.4769543469	-0.3198216231	-0.8972227445	 0.118636
H	 0.2902543155	-0.1391575861	 2.1481178751	 0.138991
H	 0.6785535365	-1.5957532967	 1.2492513849	 0.14183
H	 4.3548639804	 0.4696110095	 1.1407152901	 0.1969
H	-3.4877998842	-1.3534208258	 0.0668752346	 0.195942
