18
gdb 71517	2.47905	1.56448	1.4494	4.2699	81.66	-0.2899	0.0219	0.3118	1017.4623	0.148066	-364.765018	-364.757256	-364.756312	-364.797027	30.442	
C	-0.0189886655	 1.4793107115	-0.0221403101	-0.520103
C	 0.0380580495	-0.02106759	-0.0627469403	 0.313086
C	 0.5877862164	-0.9425215471	-1.1740209931	-0.311375
C	 0.0681120723	-1.9206177	-0.1075989117	-0.074989
C	 0.5244629014	-1.0001629486	 1.0753281968	-0.101829
C	-0.8586284459	-1.0437686514	 1.751356644	-0.315658
C	-1.1701157986	-1.0119002374	 0.2394980152	 0.212291
C	-2.4454653453	-1.0133645857	-0.4230996821	 0.153887
N	-3.4718677735	-1.0023431265	-0.9579774826	-0.354373
H	 0.9876283252	 1.9047966894	-0.0964504856	 0.127979
H	-0.6118311885	 1.8707141117	-0.8554558925	 0.138026
H	-0.468464804	 1.83865406	 0.9096965093	 0.127363
H	 0.0606529573	-0.9279505017	-2.1328252346	 0.112218
H	 1.6713725773	-0.9209489597	-1.3267914794	 0.098985
H	 0.0521006027	-3.010400599	-0.1072951133	 0.089963
H	 1.5130976633	-0.9979521674	 1.5332310781	 0.08388
H	-1.1235494661	-1.9660906133	 2.2754901751	 0.110396
H	-1.1636697079	-0.1678992849	 2.3304330868	 0.110254
