19
gdb 122922	3.76318	0.79256	0.68792	6.1948	73.87	-0.2446	0.0315	0.2761	1596.4315	0.158131	-456.327727	-456.317328	-456.316384	-456.36461	36.17	
N	 0.1308505902	 1.4590334545	-0.6844334861	-0.525957
C	 0.1670638572	 0.0726693895	-0.2259548441	-0.115025
C	 0.7341808609	-0.9411339423	-1.2519665929	-0.085035
O	-0.0972913244	-0.8977539717	-2.3904543582	-0.24957
C	 0.4950254514	-0.5843675302	-3.6358710802	-0.060764
C	-0.4704130534	 0.2718284027	-4.433549517	-0.079416
O	-0.5373800934	 1.5523579295	-3.8182890934	-0.401675
C	 0.9196136467	-0.0333081962	 1.0311782489	 0.27538
N	 1.5466059125	-0.1458907265	 1.9950835392	-0.318544
H	 1.078412923	 1.8113155899	-0.7904679899	 0.229941
H	-0.2935922078	 1.4782386372	-1.6112491801	 0.259957
H	-0.8660343686	-0.2360609828	-0.0189696274	 0.137834
H	 1.7709481357	-0.6738162931	-1.4961077944	 0.105612
H	 0.7346724462	-1.9545526278	-0.8282175426	 0.115752
H	 1.4327171602	-0.0290904581	-3.4980186018	 0.107434
H	 0.7217972158	-1.5020851732	-4.1996574245	 0.100914
H	-0.1077023934	 0.3480208979	-5.470001231	 0.096779
H	-1.4531752451	-0.2192144096	-4.4483112704	 0.109783
H	-1.2892026938	 2.0308470203	-4.1787520941	 0.2966
