18
gdb 94928	3.96108	1.08022	0.95401	3.3752	74.52	-0.2526	-0.0033	0.2494	1249.3274	0.147428	-439.084953	-439.07664	-439.075695	-439.118112	30.684	
C	 0.4504049697	 1.4479165148	-0.0756016945	-0.405618
C	-0.2056050661	 0.075643827	 0.0756113987	 0.114472
O	 0.0533566177	-0.7693005633	-1.0524682549	-0.268638
C	 1.1563753062	-1.6339576578	-0.7914221569	-0.106507
C	 1.2144592206	-1.780678457	 0.7135153595	-0.04664
C	 0.3448372866	-0.6897036433	 1.2666650971	-0.076363
N	-0.0704076426	-2.0855711632	 1.3092562996	-0.075433
C	-0.212989753	-2.8291664334	 2.4689381252	 0.138644
O	 0.4125637806	-3.8269321603	 2.7311667676	-0.289206
H	 1.5422833197	 1.367202654	-0.09018364	 0.119844
H	 0.1282167154	 1.9100984261	-1.0117751505	 0.1347
H	 0.1673960748	 2.1085633639	 0.751030577	 0.116908
H	-1.2951016262	 0.1825033425	 0.1291308769	 0.098006
H	 0.9692303058	-2.5756680028	-1.3159990424	 0.127157
H	 2.1046713094	-1.2102742627	-1.1567244624	 0.099408
H	 2.1095291396	-2.1295197606	 1.2168553385	 0.122191
H	 0.5806303941	-0.1801936829	 2.1959921799	 0.111423
H	-1.0276036023	-2.4364807311	 3.1075119318	 0.085651
