15
gdb 44098	3.93307	1.48879	1.22893	4.3629	64.71	-0.2584	-0.0176	0.2407	978.6292	0.113157	-457.734129	-457.72743	-457.726485	-457.765276	26.222	
O	 0.0150625768	 0.0735661703	-0.0487912412	-0.303649
C	 0.0580907732	 1.2566213044	-0.0156015037	 0.419779
O	-1.0155787985	 2.1446371529	 0.0131477378	-0.291062
C	-0.137898078	 3.273603081	 0.1688980844	 0.424248
C	-0.2785362151	 4.7047068654	-0.3021866939	-0.342744
C	 0.693969633	 5.0891668313	 0.8753671052	-0.249112
C	 0.5079240838	 3.6705260366	 1.5092439692	 0.045812
O	 1.6100779276	 2.7476920771	 1.3280458711	-0.296123
C	 1.1108993584	 2.3963324134	 0.0210699604	-0.136781
H	 0.0275574628	 4.9371217847	-1.3242461739	 0.118871
H	-1.2860390611	 5.0942316364	-0.1343504056	 0.131939
H	 1.7240434831	 5.2673265907	 0.5636074744	 0.129719
H	 0.3556042835	 5.9166894998	 1.4996539007	 0.12319
H	 0.0489103452	 3.6017987654	 2.4955397353	 0.105702
H	 1.8573770455	 2.4225870307	-0.77446001	 0.120213
