18
gdb 16344	3.13583	1.84485	1.44125	2.0771	67.79	-0.2296	0.0769	0.3065	935.4159	0.151746	-384.883885	-384.875602	-384.874658	-384.916516	30.535	
C	-0.3534424492	 1.3132172312	-0.0493035534	-0.254582
O	 0.2297621089	 0.0292397748	 0.1195364077	-0.276508
C	 0.7318232165	-0.5112236155	-1.0392387467	 0.339452
C	-0.1399148008	-1.0617757967	-2.153236254	-0.364027
C	 0.8488552169	-1.9504905365	-1.4443670444	 0.018514
O	 2.1610203604	-1.7692005474	-1.9814914192	-0.307796
C	 2.1920320136	-0.3862759989	-1.5043219016	 0.09303
C	 2.6194434736	 0.608662033	-2.5619165354	-0.413367
H	 0.3877832652	 2.0593490172	-0.367125196	 0.112937
H	-1.1654075496	 1.2891631902	-0.7883879171	 0.115035
H	-0.7572393113	 1.6072520888	 0.9217923071	 0.130154
H	-1.1718146844	-1.2095431995	-1.8478767113	 0.119022
H	 0.0086503393	-0.8055851101	-3.1982802557	 0.114007
H	 0.6178914143	-2.8820989464	-0.9426818264	 0.113876
H	 2.8481269916	-0.3305357302	-0.6255995914	 0.088779
H	 1.9301857864	 0.6150327595	-3.4105547893	 0.121843
H	 2.6628793081	 1.6175145071	-2.1372500971	 0.118381
H	 3.6174952504	 0.3573162492	-2.9349605056	 0.13125
