17
gdb 80469	2.20377	1.71102	1.52764	2.4101	68.29	-0.2428	-0.0327	0.2101	965.9895	0.136889	-458.970739	-458.963058	-458.962113	-459.002786	30.313	
O	-0.3807563466	 1.6518218352	-0.1254625046	-0.427386
C	-0.2021270326	 0.2851728893	-0.0779444397	 0.142512
C	-1.2750021126	-0.7376495566	 0.0229456826	-0.122887
C	-2.7001266599	-0.3076150946	-0.342325077	-0.252836
C	-2.6471572537	 0.2468771688	-1.7710502572	-0.02135
O	-2.6487996939	 1.6837469148	-1.7384359391	-0.425359
C	-1.2937829888	-0.2311379605	-2.359585767	 0.402551
O	-1.0386329201	-0.1837942838	-3.5405641899	-0.342985
C	-0.4203527448	-0.6976449047	-1.2588204155	-0.241447
H	-1.1908205692	 1.8738351038	-0.6171145369	 0.30036
H	 0.7126142467	 0.0606747086	 0.4621731298	 0.119393
H	-1.1626260335	-1.5535602057	 0.7289587031	 0.097964
H	-3.3590197782	-1.1795450093	-0.3133138649	 0.119941
H	-3.10698448	 0.4368504675	 0.3489056993	 0.130768
H	-3.473421944	-0.1055761518	-2.3976332006	 0.106121
H	-2.4365555778	 1.988579603	-2.6305213743	 0.304159
H	 0.3746115891	-1.394029274	-1.4942807582	 0.110482
