17
gdb 94963	3.48546	1.35793	1.18077	4.099	66.85	-0.2707	0.0085	0.2792	1047.8237	0.137503	-459.003447	-458.995912	-458.994968	-459.035496	29.05	
O	-0.0077901315	 1.3272761249	 0.3331805761	-0.44206
C	-0.0601674275	-0.0539922071	-0.0061363348	 0.10076
C	 0.6170480473	-0.9422488004	 1.0562566625	-0.262899
C	-0.3963439753	-0.9824973889	 2.2201626816	-0.220822
C	-1.7667167673	-0.9966208736	 1.5180651493	-0.214525
C	-1.5389657532	-0.4208924578	 0.1010871863	 0.126111
O	-1.8241044047	-1.7339089734	-0.4862340459	-0.266546
C	-2.0736587779	-2.2864136351	 0.7509136826	 0.446276
O	-2.3963597437	-3.4044256255	 0.9906989288	-0.324581
H	 0.9169451262	 1.5879544964	 0.3841597111	 0.289579
H	 0.3259300984	-0.2332362443	-1.0184263604	 0.084101
H	 0.774528533	-1.9447339651	 0.6440090758	 0.127264
H	 1.5973543883	-0.5556632463	 1.3510280709	 0.096224
H	-0.2588333546	-1.8410670287	 2.8815933655	 0.123517
H	-0.316123477	-0.0733366385	 2.8220526607	 0.119743
H	-2.593775805	-0.6181294645	 2.1178339721	 0.11145
H	-2.2102734754	 0.341681308	-0.2917976822	 0.106411
