25
gdb 64356	1.79001	1.74157	1.4263	1.6695	86.95	-0.2376	0.0667	0.3043	1151.5753	0.227834	-389.506351	-389.496081	-389.495137	-389.540639	39.97	
C	 0.3583331614	 1.4813479297	-0.2954556917	-0.436791
C	-0.0319343825	 0.0222076614	 0.015276941	 0.251727
C	-1.5605329439	-0.0697105888	 0.1000338304	-0.455175
C	 0.5403061538	-0.9000614187	-1.0813154206	-0.091942
O	 1.8783005813	-1.2198336075	-0.7117392678	-0.275289
C	 2.1083943492	-0.8417408005	 0.6421848179	-0.091957
C	 0.734670841	-0.534577304	 1.2742119029	 0.251772
C	 0.8506822633	 0.4497998173	 2.4445554138	-0.455193
C	 0.1106749591	-1.8461019816	 1.7924470139	-0.436818
H	 1.4409047097	 1.6100445389	-0.3812185503	 0.123541
H	-0.0842319356	 1.7873774395	-1.2492483154	 0.1109
H	-0.0067068065	 2.1703344999	 0.4716002853	 0.113222
H	-2.0173287719	 0.3294048255	-0.8124181725	 0.11309
H	-1.9101896756	-1.0981013992	 0.2191228921	 0.116796
H	-1.9480191827	 0.519623783	 0.938562408	 0.114125
H	-0.0509400758	-1.8237085707	-1.1730751175	 0.084001
H	 0.5514230537	-0.4164942817	-2.0656842452	 0.094169
H	 2.6268174784	-1.6610264178	 1.1550167572	 0.09413
H	 2.7675098633	 0.0389293408	 0.6752204685	 0.084033
H	 1.3783625884	 1.3657882943	 2.1678788828	 0.116799
H	-0.1369682916	 0.7297767787	 2.8276494383	 0.11412
H	 1.400041697	-0.0082929315	 3.2745456812	 0.113097
H	 0.7465601366	-2.274431158	 2.5743748301	 0.110905
H	-0.8783507954	-1.6792981213	 2.2287401028	 0.113233
H	 0.0123703454	-2.5968321879	 1.0033898646	 0.123508
