14
gdb 8776	4.44657	1.31039	1.18508	3.1543	55.86	-0.2758	-0.0529	0.2229	985.2934	0.103429	-456.820875	-456.812423	-456.811479	-456.85429	29.24	
O	-0.0616923232	 1.4435103864	 0.0012049907	-0.431186
C	 0.0310879478	 0.0511376902	-0.0034596017	 0.023086
C	 0.7412030655	-0.4332938524	-1.2562886905	 0.155687
O	 1.1238588755	 0.3425165049	-2.0945466512	-0.252077
C	 0.7889962278	-0.4657610444	 1.2440307733	 0.023116
O	 2.145631504	-0.1448549929	 1.1815249471	-0.431213
C	 0.1568373149	 0.124397926	 2.4932774583	 0.155672
O	 0.8111284196	 0.7555106089	 3.2835780821	-0.252063
H	 0.4152847351	 1.7425605396	-0.7897644979	 0.302365
H	-0.9745761103	-0.4099762515	-0.0007024793	 0.096967
H	 0.8809810817	-1.5279994846	-1.3553138821	 0.105188
H	 0.6461506401	-1.5617075725	 1.2938845181	 0.096922
H	 2.3156606555	 0.4329056409	 1.943000885	 0.302364
H	-0.9262198139	-0.0609286685	 2.636007218	 0.105173
