18
gdb 74023	2.83196	1.57348	1.08216	4.0166	81.09	-0.2381	-0.0206	0.2174	1113.1124	0.148915	-401.97963	-401.971556	-401.970612	-402.012336	30.758	
C	-0.0752300316	 1.4351265576	-0.0619386717	-0.491254
C	-0.0274112737	-0.0454166824	 0.1141567523	 0.073118
C	-0.9866579486	-0.9507965305	 0.3364449956	 0.129436
C	-2.3955542519	-1.2973236015	-0.0916090618	-0.307955
C	-1.7157418723	-2.5266783649	-0.8027751373	-0.243577
C	-0.4741305548	-2.3478769436	 0.161190445	-0.006699
N	 0.8883823738	-2.1551427597	-0.2437288565	-0.349678
C	 1.2520651959	-0.8080052661	-0.1080091567	 0.351339
O	 2.3726833619	-0.3639450471	-0.2305878099	-0.373298
H	 0.5525028172	 1.929489354	 0.6880345392	 0.145855
H	 0.3268819099	 1.7264343557	-1.0384889406	 0.140512
H	-1.0934618196	 1.8207325669	 0.031670715	 0.118809
H	-3.0492827676	-1.6093556151	 0.7283332804	 0.119347
H	-2.9225821192	-0.5736868044	-0.7155352882	 0.120194
H	-2.2380284979	-3.4845668385	-0.7536123644	 0.107479
H	-1.4468668015	-2.2911385989	-1.8333973586	 0.125181
H	-0.5707669485	-3.0064080664	 1.032252421	 0.096113
H	 1.6039036486	-2.8577923349	-0.1371067328	 0.245077
