20
gdb 119580	2.92501	1.10135	0.93087	2.157	76.04	-0.2364	0.0585	0.2949	1335.726	0.169715	-440.219254	-440.209816	-440.208872	-440.254257	34.234	
C	-0.0141796245	 1.3741662528	-0.0532680178	-0.221509
O	 0.0142693313	-0.0313958329	-0.1471424647	-0.245632
C	-1.2654406277	-0.6209941743	 0.0064831104	-0.195246
C	-1.0648432707	-2.1038057221	-0.0222291503	 0.325452
C	-1.246600274	-2.9595471498	-1.2102465021	-0.282337
N	-2.203132937	-3.1101894064	-0.0951037067	-0.185601
C	-1.4691708345	-3.9477939918	 0.9269118438	-0.177752
C	-0.360315265	-2.885562327	 1.0873841611	 0.054626
O	 0.9468334273	-3.3525248799	 0.8493659028	-0.4316
H	 1.0114188118	 1.7313811377	-0.1733716446	 0.128221
H	-0.6411838907	 1.8222659149	-0.8397375747	 0.108296
H	-0.3974464176	 1.7100648601	 0.9231885903	 0.106481
H	-1.713265039	-0.3105253253	 0.9664899145	 0.090269
H	-1.9525369272	-0.3007594717	-0.7933843699	 0.096724
H	-1.6880379063	-2.4980689162	-2.0882968459	 0.11877
H	-0.5381554381	-3.758944341	-1.4120546876	 0.124235
H	-2.0864129025	-4.0946591333	 1.8145036473	 0.111831
H	-1.134442412	-4.9160069472	 0.5437027435	 0.115629
H	-0.427691212	-2.3585948722	 2.0494775715	 0.071398
H	 1.5076788384	-2.5796451842	 0.7163355791	 0.287746
