16
gdb 15982	3.84509	1.63639	1.27218	1.0029	69.1	-0.2471	0.0158	0.2629	972.8501	0.130761	-379.88314	-379.875326	-379.874382	-379.915681	27.793	
C	-0.0447619069	 1.3737779259	 0.1443654406	-0.339968
N	-0.0746455916	-0.0771228	 0.2634395215	-0.34883
C	-1.1082400459	-0.7033053557	-0.0544459524	 0.422627
O	-2.3424202873	-0.2751470657	-0.5310754551	-0.282766
C	-2.8802860645	-1.6394851741	-0.5071818771	-0.140052
C	-1.518831448	-2.1383168008	-0.0317077846	 0.17799
C	-0.6936416406	-3.3251378117	-0.3431262497	-0.29307
N	-1.2438210932	-3.1174424931	 1.0061179734	-0.355899
H	 0.7051826838	 1.659143923	-0.6020312179	 0.129567
H	-1.0063667328	 1.8169553659	-0.1387520065	 0.129254
H	 0.275615949	 1.8041623909	 1.0991327705	 0.127924
H	-3.6932047056	-1.7317137698	 0.2169490781	 0.131485
H	-3.2047150139	-1.9495924745	-1.5033786544	 0.124096
H	-1.1312076618	-4.1554368284	-0.890518354	 0.128204
H	 0.3661661163	-3.1571353157	-0.514001381	 0.137692
H	-0.5270861269	-2.7463527463	 1.6275152887	 0.251747
