23
gdb 99963	2.29608	1.22769	1.18145	2.1422	77.06	-0.2531	0.057	0.3102	1238.3718	0.202094	-462.568651	-462.557643	-462.556699	-462.603299	42.741	
C	-0.1224414239	 1.5509348458	 0.1412878042	-0.420016
C	 0.016907551	 0.0300767151	 0.0379196901	 0.342163
C	 0.7055653418	-0.5289832674	 1.295089304	-0.43158
O	-1.3155884459	-0.4807360408	-0.0296389295	-0.477414
C	 0.7615018854	-0.4354817072	-1.2571274765	 0.358292
C	 2.2656417438	-0.1345283399	-1.267087529	-0.443714
O	 0.5617642628	-1.8569183528	-1.2916227191	-0.495004
C	 0.0920607637	 0.1528619892	-2.5144582827	-0.141042
O	 0.5401348313	-0.6354338287	-3.6220846662	-0.439133
H	 0.8517857963	 2.045727507	 0.1733969464	 0.113755
H	-0.6983258028	 1.9573051923	-0.6937949394	 0.118874
H	-0.6595004633	 1.7978694892	 1.0614533766	 0.124221
H	 0.0570095696	-0.3510217553	 2.1569681817	 0.11614
H	 0.8685663891	-1.6056113523	 1.1990509625	 0.128612
H	 1.6701223066	-0.0491980911	 1.4848435807	 0.108488
H	-1.209581351	-1.4010076519	-0.3091159399	 0.279411
H	 2.7769400172	-0.7026231205	-0.488079701	 0.126025
H	 2.6879544292	-0.4224728305	-2.2339941166	 0.127694
H	 2.4667944136	 0.9307139243	-1.1164360222	 0.110965
H	 0.607119528	-2.0958927356	-2.2280513897	 0.28793
H	-0.9953485116	 0.0909842277	-2.4002867654	 0.111601
H	 0.3803149972	 1.202841186	-2.6518365204	 0.097079
H	-0.0681110279	-0.507320273	-4.3544390187	 0.296653
