16
gdb 123906	3.4626	1.58962	1.13483	5.0701	70.73	-0.2167	-0.0294	0.1873	1022.4489	0.127378	-434.054753	-434.047906	-434.046962	-434.085992	27.008	
C	-0.0106028068	 1.528677772	-0.0042975714	-0.214614
C	 1.4389155482	 2.0616138464	 0.0299078467	-0.169624
N	 2.216976822	 1.6312172258	 1.2021452704	-0.392167
C	 1.9100292225	 0.3283550262	 1.5800225431	 0.249303
C	 0.9462230447	-0.4579377273	 1.0273853129	 0.354944
C	-0.0499856739	-0.0185097769	 0.0149380403	-0.337601
O	 1.0187609411	-1.6662789876	 1.5881953832	-0.230168
N	 2.0727122515	-1.5898013425	 2.5626408637	-0.029005
N	 2.5672751673	-0.4295169506	 2.5169942887	-0.201203
H	-0.5579064202	 1.9141454485	 0.8636905915	 0.112616
H	-0.5149679287	 1.9052813967	-0.8990383369	 0.111053
H	 1.965675344	 1.7159150187	-0.8695326747	 0.120968
H	 1.4435639703	 3.1537916055	 0.0022993053	 0.115312
H	 2.1963080153	 2.2888507561	 1.9712329892	 0.244637
H	-1.0517867201	-0.3815534518	 0.2664643803	 0.133639
H	 0.1928330228	-0.4274698491	-0.9742622821	 0.131909
