19
gdb 98486	2.33033	1.33274	0.91741	1.8953	83.3	-0.2438	-0.0145	0.2292	1307.4773	0.155978	-385.873676	-385.863813	-385.862869	-385.908854	36.19	
C	 0.008673262	 1.5437927027	-0.1159212828	-0.380063
C	-0.1102518426	 0.036718443	-0.3225275216	-0.311154
C	-1.4200231473	-0.5368371521	 0.1813851291	 0.329235
O	-2.2759408555	 0.1519713902	 0.695126833	-0.326161
C	-1.640257662	-2.0267444837	 0.024764448	 0.073858
C	-2.4950885737	-2.6657180015	 1.1339891107	-0.27676
C	-3.107855067	-2.4354589146	-0.1953002209	-0.276771
C	-0.6182826452	-2.8284853217	-0.5852283348	 0.19536
C	 0.2340302859	-3.5079192194	-1.0955343828	-0.416518
H	 0.9674612723	 1.9088934497	-0.4942796921	 0.109368
H	-0.7937158366	 2.0744699517	-0.6347794525	 0.130264
H	-0.0665112617	 1.8006759074	 0.9438053319	 0.130261
H	-0.0119377861	-0.2374711199	-1.3813949397	 0.134295
H	 0.7045407742	-0.5072176179	 0.1737481003	 0.134293
H	-2.2230932279	-3.6740651681	 1.420485395	 0.133852
H	-2.7684890019	-1.9915524266	 1.9368622971	 0.145736
H	-3.7968138714	-1.6051217035	-0.2939298509	 0.145736
H	-3.2710999399	-3.2802707601	-0.8529242203	 0.13385
H	 0.9880152544	-4.1050040056	-1.5453829367	 0.191321
