21
gdb 79408	2.19436	1.70412	1.54467	1.3184	83.44	-0.2067	0.0834	0.2902	1046.3076	0.180962	-383.164352	-383.155319	-383.154375	-383.197303	34.979	
C	-0.6688035479	 1.4178296228	-0.4281066862	-0.336908
N	-0.4502279377	 0.0084786451	-0.1236287389	-0.142272
C	-1.242117747	-0.5908476903	 0.9875040921	-0.087159
C	-0.1409198849	-1.6594683615	 1.2403632184	-0.076047
N	-0.0150311895	-1.4344073059	 2.7100679306	-0.381506
C	-0.3259605986	-0.0635600394	 2.1719138353	 0.285079
C	-0.4433242786	 1.1018836803	 3.1142663641	-0.530832
C	 0.5931854779	-0.330760177	 0.8976371354	 0.33654
C	 2.0612127073	-0.0865101208	 0.7312515214	-0.537694
H	 0.1399820421	 1.7750629796	-1.0743285094	 0.120158
H	-1.6046785011	 1.5194866816	-0.9880460049	 0.118808
H	-0.7238043163	 2.0855892507	 0.4458843807	 0.096567
H	-2.3275038568	-0.7165589994	 0.9541199873	 0.07091
H	-0.0198172989	-2.6265915376	 0.7531958863	 0.083401
H	-0.8339638977	-1.8125955763	 3.1953079822	 0.201463
H	 0.4716328194	 1.192487449	 3.7093869061	 0.134217
H	-0.610804833	 2.0456907136	 2.5911261142	 0.130645
H	-1.2784734824	 0.9508809145	 3.8087935049	 0.121379
H	 2.6008773113	-0.5080218298	 1.5846226021	 0.142735
H	 2.4303724537	-0.5583792931	-0.1850476621	 0.12996
H	 2.2861442288	 0.9843331439	 0.6779214503	 0.120556
