18
gdb 75273	2.35224	1.60026	1.4612	1.9742	79.18	-0.226	-0.0302	0.1958	1022.9572	0.147147	-401.939542	-401.931347	-401.930403	-401.972171	30.911	
C	 0.0690635595	 1.4586998447	-0.0300747024	-0.502362
C	-0.0063808604	-0.034140903	-0.0622939038	 0.343686
C	-0.1098398566	-0.8489036119	-1.1158881749	-0.161712
C	-0.1489208382	-2.2935963249	-0.6903492011	-0.206582
N	-0.0543691199	-2.2741847203	 0.7955459186	-0.124481
C	 1.2152145319	-1.8120976724	 1.3833386024	-0.097482
C	 2.5106998864	-1.6426434622	 0.6838302524	 0.145081
O	 2.7075306997	-1.6736552761	-0.5093985327	-0.27542
C	 0.0352944482	-0.8666007464	 1.1744256738	-0.148833
H	 1.0260045291	 1.7993534135	 0.3848346454	 0.132267
H	-0.0359840884	 1.8843114983	-1.0309038853	 0.131222
H	-0.7181209796	 1.8838100112	 0.6050506093	 0.127347
H	-0.1292049829	-0.5384848022	-2.1540167961	 0.100838
H	-1.0952374381	-2.7824605178	-0.9560319705	 0.114264
H	 0.6643472513	-2.8789317836	-1.1268190871	 0.143013
H	 1.346922053	-2.1660941232	 2.4052400444	 0.103975
H	 3.3542189059	-1.4830337628	 1.3946333383	 0.076289
H	-0.4914722009	-0.5393369313	 2.0691938493	 0.098891
