18
gdb 41121	3.8511	1.94283	1.54537	1.5469	78.61	-0.2124	-0.0047	0.2077	875.3254	0.151018	-364.743339	-364.737382	-364.736438	-364.773157	26.255	
C	-0.0372613392	 1.5615078967	-0.0349413943	-0.229078
C	 1.4935968964	 1.8839311868	-0.0107539173	-0.350785
C	 2.0076310857	 0.4649203713	 0.1008965128	 0.369708
C	 3.377949846	-0.1677910987	 0.0525464287	-0.216088
C	 3.094562595	-1.4746483996	 0.0596162768	-0.082931
C	 1.5713091017	-1.5112124642	 0.1038925973	-0.060884
C	 1.1008377926	-0.3878233231	 1.0591402646	-0.08798
C	 0.0111724727	 0.0314675174	 0.0613565308	-0.001698
N	 1.1408850229	-0.3967745346	-0.8848448639	-0.176822
H	-0.5793976641	 2.012254389	 0.8017410909	 0.100637
H	-0.5143502992	 1.8896494671	-0.9625369978	 0.111391
H	 1.8331282362	 2.3729667065	-0.9276618815	 0.113588
H	 1.7872222156	 2.5058646484	 0.8395989639	 0.103286
H	 4.3303115647	 0.33909381	-0.0002586808	 0.112093
H	 3.7609773226	-2.3244107959	 0.0120102293	 0.109521
H	 1.0481753667	-2.4643888259	 0.0192897367	 0.066506
H	 1.091106683	-0.3803766403	 2.1577871013	 0.0548
H	-0.9246062292	-0.5225387608	-0.0306518574	 0.064735
