17
gdb 64704	4.78013	0.81982	0.79927	4.0729	76.58	-0.2449	-0.0183	0.2266	1430.6767	0.132191	-421.785662	-421.77619	-421.775246	-421.82026	34.691	
O	-0.0807968644	 1.4798656257	-0.1622331466	-0.464251
C	 0.0112167815	 0.0879280837	-0.0917539739	 0.407269
C	 1.138877749	-0.4973545257	-0.938918368	-0.401247
C	 2.4307470402	 0.0475944499	-0.5303421779	 0.27262
C	 3.4600598091	 0.548561078	-0.1621686323	-0.430598
C	-0.4004910082	-0.5816776687	 1.1769005166	-0.347884
C	-1.3137577882	-0.6412472129	-0.0585277726	-0.172726
C	-2.5852337228	 0.1257986645	-0.0331196669	 0.170569
O	-3.6028576065	-0.2501750547	-0.5615031362	-0.271882
H	 0.7593272809	 1.8357034358	 0.1552269349	 0.292539
H	 1.1427771053	-1.5898271532	-0.853957513	 0.135857
H	 0.952554119	-0.2556162441	-1.9924045071	 0.1491
H	 4.3875816152	 0.963708923	 0.1471069247	 0.205439
H	 0.0775736539	-1.5043005654	 1.4857684909	 0.129316
H	-0.7276553093	 0.0647118188	 1.9843721272	 0.130292
H	-1.3791272606	-1.583379856	-0.5925355986	 0.107776
H	-2.5377672641	 1.0843087714	 0.5240921489	 0.08781
