19
gdb 111667	2.69956	1.23602	1.13933	2.3748	75.36	-0.2352	-0.0122	0.223	1163.3485	0.15989	-423.037907	-423.02935	-423.028406	-423.07179	32.021	
O	 0.1639552084	 0.5831527998	-1.2288287939	-0.419304
C	-0.0979567894	 0.2495932555	 0.129922664	-0.11853
C	-1.4068779528	-0.4996111687	 0.1585649143	 0.002649
C	-1.5704583946	-1.9351450938	-0.2241836962	-0.054577
C	-0.3170374036	-2.8148403069	-0.3079454356	-0.240265
C	 0.2834322661	-2.8683720277	 1.1149335912	-0.331906
C	-0.7074041385	-2.1479059962	 2.0461915384	 0.405822
O	-0.6522206651	-2.1527408335	 3.2513919258	-0.329819
C	-1.7943244734	-1.524301295	 1.2241367881	-0.192505
H	 0.9239944139	 1.1725998301	-1.250572028	 0.288462
H	 0.7216179985	-0.346823623	 0.5516506497	 0.092328
H	-0.1882127439	 1.1536798971	 0.7514393371	 0.098364
H	-2.242625395	 0.133405062	-0.1287886599	 0.103696
H	-2.4126011944	-2.1942822167	-0.8554989866	 0.094123
H	-0.6027955017	-3.8168291699	-0.6389233276	 0.108832
H	 0.3879076198	-2.4221512917	-1.0467222964	 0.12263
H	 0.4052369856	-3.8913899522	 1.4828250312	 0.132328
H	 1.2688346187	-2.3987462912	 1.1977449191	 0.131812
H	-2.7666389487	-1.426156498	 1.6911008753	 0.105861
