18
gdb 7288	4.08295	1.07214	0.90018	2.949	65.28	-0.2492	-0.0188	0.2304	1260.2499	0.149824	-422.082301	-422.072482	-422.071538	-422.117361	34.34	
C	 0.0479748778	 1.5622372018	 0.0673109838	-0.411507
C	 0.0090854133	 0.0375235356	 0.0452420383	 0.111858
O	 0.6749406736	-0.5300576507	 1.1697443528	-0.425503
C	-1.4330455335	-0.5049632138	-0.0577240581	 0.100166
O	-2.1218133781	 0.0463100147	-1.1738771389	-0.425792
C	-1.4676978845	-2.0374046379	-0.0789092839	-0.300775
C	-2.8830160078	-2.5654798953	-0.067448781	 0.165538
O	-3.3294591372	-3.3566850496	-0.8566216692	-0.24131
H	 1.081644651	 1.9171473449	 0.0881117881	 0.124661
H	-0.4588050359	 1.9735495895	-0.8079306685	 0.138821
H	-0.4667694594	 1.9464040382	 0.9580599472	 0.106922
H	 0.5690567556	-0.3282502365	-0.8269705096	 0.083705
H	 0.3854733237	-0.0506498808	 1.9539844254	 0.282069
H	-1.9917411065	-0.1456234409	 0.81921267	 0.082664
H	-1.791306414	-0.3823526603	-1.9716762789	 0.287802
H	-0.9501330804	-2.4313370764	-0.961859429	 0.109807
H	-0.9403331249	-2.404211532	 0.8103840737	 0.139959
H	-3.5141095726	-2.1609257406	 0.7587384079	 0.070916
