17
gdb 74232	2.61355	1.29061	0.94207	3.0291	81.57	-0.2392	-0.0241	0.2151	1253.2621	0.133589	-384.691669	-384.682749	-384.681805	-384.725933	32.965	
C	-0.0732186533	 1.5183470582	 0.0588565946	-0.485978
C	-0.0104795731	 0.0250102839	 0.0150845656	 0.310531
C	 0.0168147561	-0.7413883523	-1.0785402051	-0.171563
C	 0.0813064408	-2.2236909689	-0.7802878991	-0.322416
C	 1.2290808656	-2.9091832832	-1.3594002262	 0.341698
C	 2.1882748308	-3.4556477413	-1.8341502913	-0.470762
C	 0.0960870377	-2.2466657967	 0.7839792784	 0.394106
O	 0.1347016092	-3.2325053164	 1.4630121176	-0.29044
C	 0.031026356	-0.7980668234	 1.2782471672	-0.416329
H	 0.7898296326	 1.9322637913	 0.595394193	 0.132034
H	-0.0905758497	 1.9493200917	-0.9456104744	 0.129196
H	-0.9667291413	 1.8615194953	 0.5953997183	 0.130215
H	 0.0065274498	-0.3690751343	-2.0963482406	 0.106408
H	-0.8359009125	-2.7427422737	-1.0988918375	 0.134321
H	 3.0315569098	-3.947681657	-2.2514847209	 0.199593
H	 0.8996461533	-0.5786082942	 1.9137244866	 0.141634
H	-0.8514981416	-0.6639734991	 1.9180245238	 0.137753
