20
gdb 88549	3.30934	1.14139	1.09438	1.5568	79.81	-0.2376	0.0702	0.3078	1221.6336	0.17078	-403.086597	-403.078054	-403.07711	-403.120095	32.703	
C	-0.2333049417	 1.4750042	-0.155832519	-0.407527
C	-0.0846914099	-0.0075662825	 0.0850764851	 0.016856
N	 1.2218905603	-0.6197339794	-0.2037840183	-0.345402
C	 0.723814698	-0.6144828944	 1.1836315864	-0.185253
C	 1.5127588068	 0.1468782435	 2.1807547737	 0.496923
C	 2.4915693501	 1.3208619413	 1.9945513085	-0.293752
C	 3.2693480826	 0.8173123762	 3.2602547032	-0.251866
C	 2.246441464	-0.3193631066	 3.3759558804	-0.051088
O	 0.9493021184	 0.2790716888	 3.4975708402	-0.299227
H	 0.691003306	 2.0088253381	 0.0705740348	 0.135743
H	-0.4833345598	 1.6676961602	-1.2048072585	 0.118218
H	-1.0354913497	 1.8891675017	 0.4640274823	 0.123093
H	-0.9630120827	-0.5906868898	-0.1922548586	 0.083862
H	 1.1143097772	-1.541315692	-0.6172980394	 0.233687
H	 0.33632146	-1.5471304817	 1.5916962623	 0.081895
H	 3.0739371927	 1.2368771376	 1.0758882799	 0.12595
H	 2.0397531232	 2.3130857072	 2.0617493215	 0.105067
H	 4.2762352667	 0.467492913	 3.0210030546	 0.10655
H	 3.3096703232	 1.4919267024	 4.11867201	 0.109555
H	 2.3682746346	-1.3148867235	 3.7896176008	 0.096715
