12
gdb 12163	3.63806	1.57622	1.20847	3.845	56.11	-0.2721	-0.0251	0.247	929.9851	0.084025	-414.677051	-414.669646	-414.668702	-414.709157	25.816	
N	-0.0166409329	 1.3583470042	 0.2745922784	-0.507557
C	 0.0359495585	-0.0289426845	-0.072110372	-0.173849
C	-1.3143078838	-0.7950277934	-0.2708961527	 0.001741
O	-0.8663642936	-1.2610799065	-1.5785475811	-0.242506
C	 0.2888566349	-0.5019245139	-1.5236834657	 0.433137
O	 1.0803825397	-0.3245862461	-2.3868785903	-0.300633
C	-1.6131475823	-1.8883839868	 0.6422027258	 0.2828
N	-1.8383250199	-2.736831965	 1.3932930949	-0.304525
H	 0.8731429698	 1.6888588051	 0.6259487007	 0.259157
H	-0.2787187909	 1.9428856417	-0.511569525	 0.251345
H	 0.6873327683	-0.5640887386	 0.6226704339	 0.151181
H	-2.1750873879	-0.1296240862	-0.3715160869	 0.149707
