20
gdb 59802	4.09658	0.89813	0.83689	3.0331	84.63	-0.2237	-0.0025	0.2212	1458.6135	0.170722	-399.358257	-399.348767	-399.347823	-399.393411	34.546	
C	-0.0400024569	 1.6206501796	 0.3596968854	-0.370932
C	-0.0506897356	 0.1430126337	-0.0443248412	 0.04737
C	 0.7054651042	-0.7210308498	 0.9764141079	-0.370962
N	-1.4368925316	-0.3039896937	-0.1371463711	-0.324031
C	-1.7758826445	-1.1519615058	-1.0127711137	 0.396398
C	-3.1779016065	-1.7143559169	-1.2401969771	-0.257071
N	-3.0808421538	-2.6531333368	-2.3689870599	-0.245947
C	-1.8557008861	-2.6378695717	-2.7225681308	 0.069638
N	-1.0175578052	-1.79908023	-2.0011032533	-0.354836
H	 0.9844861266	 1.9995553772	 0.4360289939	 0.102688
H	-0.5794204956	 2.2257931635	-0.3744814128	 0.11412
H	-0.534310947	 1.7478450556	 1.3277553574	 0.12333
H	 0.4687556414	 0.0628152231	-1.0171755955	 0.040771
H	 0.2120534367	-0.6658615272	 1.9516609766	 0.128403
H	 0.725107252	-1.7718384553	 0.6697054644	 0.105005
H	 1.7387971497	-0.3772156535	 1.0902091941	 0.109733
H	-3.548823507	-2.2282752895	-0.3468161207	 0.143598
H	-3.8910068816	-0.9146893223	-1.4668618905	 0.144175
H	-1.4458183594	-3.2293332962	-3.5355519913	 0.132887
H	-0.02744057	-1.7042837541	-2.1398138317	 0.265664
