21
gdb 115057	2.24185	1.32242	0.90743	1.4452	80.62	-0.2349	0.0302	0.2651	1330.8314	0.181967	-424.217911	-424.208345	-424.207401	-424.252579	35.089	
C	-0.0537287992	 1.3985098102	-0.127035488	-0.234043
O	-0.0129237663	 0.0139632326	 0.1191495726	-0.243317
C	-1.2802140217	-0.6265016873	 0.0445353004	 0.091603
C	-1.6776118769	-0.9364677059	-1.426268582	-0.277139
C	-1.277822802	-2.3819050112	-1.6003769422	-0.074825
C	-1.0013944967	-2.9654177318	-0.4369912771	-0.053529
C	-1.1641675404	-2.0161695859	 0.7277099343	-0.044075
C	-0.0655345371	-2.1147821699	 1.7847316055	-0.088113
O	-0.1934646605	-3.3979569358	 2.3898592674	-0.429895
H	 0.9637971034	 1.7792146821	-0.0072485044	 0.125788
H	-0.3968001651	 1.6375267533	-1.1448786521	 0.104923
H	-0.7144637781	 1.9176371021	 0.5857664904	 0.102878
H	-2.0261974713	 0.0071535548	 0.5458046747	 0.058413
H	-2.7558799149	-0.7982829795	-1.5872128315	 0.102939
H	-1.1696225773	-0.260329294	-2.1232480385	 0.107242
H	-1.252790982	-2.8672325456	-2.5698360429	 0.08851
H	-0.716144816	-3.9996338101	-0.2887388813	 0.102169
H	-2.10879501	-2.2383401798	 1.2458482109	 0.08862
H	 0.9174708133	-1.9870433048	 1.3154587354	 0.10309
H	-0.1862741311	-1.3106868047	 2.526523838	 0.083642
H	 0.55963179	-3.5273136987	 2.9730711001	 0.285121
