14
gdb 127758	3.67612	1.65026	1.14725	2.5707	70.06	-0.2433	-0.0318	0.2115	984.7414	0.104614	-429.029391	-429.022503	-429.021559	-429.060803	25.668	
C	-0.0153413985	 1.4754800533	-0.05540727	-0.346652
N	-0.0080628275	 0.0347585372	 0.0657159966	-0.128851
N	-0.0438748543	-0.7401007609	-1.0562976008	-0.142272
N	-0.0288567055	-2.0063232436	-0.7288360321	-0.305982
C	 0.017578463	-2.0430504001	 0.6250879813	 0.415293
C	 0.0321854289	-0.7660384617	 1.1660300447	 0.2879
C	 0.0803646117	-0.9451922606	 2.5694954363	-0.134575
N	 0.093684974	-2.2475145422	 2.8484670782	-0.198244
N	 0.0554445242	-2.9147936122	 1.6669405697	-0.324158
H	 0.893482425	 1.9044158592	 0.3775784767	 0.148267
H	-0.058225816	 1.711214218	-1.1190308557	 0.171733
H	-0.8883742361	 1.900889834	 0.4487432229	 0.148233
H	 0.1056188383	-0.2272880857	 3.3736013029	 0.12458
H	 0.0588259426	-3.9193470248	 1.6693843593	 0.284728
