25
gdb 116951	5.68097	0.46068	0.44029	0.1387	100.38	-0.2387	0.0586	0.2973	2635.1494	0.226292	-352.352204	-352.340292	-352.339348	-352.391377	42.034	
C	-0.0336427749	 1.5988588363	 0.0776913528	-0.381184
C	 0.0026984112	 0.0698881585	 0.0419656137	-0.151061
C	 0.6794865251	-0.4731676362	-1.2334421208	-0.336404
C	 0.7275726153	-1.9308804743	-1.2834018887	 0.067693
C	 0.7491612934	-3.1360954131	-1.2881760416	 0.073586
C	 0.7994037628	-4.5942528722	-1.3197554304	-0.348048
C	 1.4818341062	-5.1752108169	-2.5833562678	 0.052707
C	 1.6173184954	-6.6969627338	-2.4561858056	-0.389678
C	 0.7266340234	-4.7862322578	-3.85884843	-0.378954
H	 0.9769025773	 2.0215446201	 0.045888394	 0.114804
H	-0.5876947301	 2.0039427824	-0.7766449436	 0.114821
H	-0.517162162	 1.9622526645	 0.9895430565	 0.11347
H	 0.5378542217	-0.3156308977	 0.9170955127	 0.107264
H	-1.0143813514	-0.3336725595	 0.1012363829	 0.10737
H	 0.1464528256	-0.0895345038	-2.1144702138	 0.12116
H	 1.6982101338	-0.066708281	-1.3007100378	 0.121179
H	 1.3297852264	-4.9590650847	-0.429868166	 0.118107
H	-0.2199069226	-5.0012362582	-1.2502774339	 0.117926
H	 2.4888539704	-4.7408870797	-2.6353843331	 0.081967
H	 0.6321908892	-7.1735085127	-2.3822150696	 0.111639
H	 2.1242488969	-7.1209165852	-3.3289258832	 0.110616
H	 2.1907418446	-6.9768798271	-1.5659444782	 0.109457
H	 1.2430752527	-5.1588379296	-4.749469644	 0.107605
H	-0.2842943684	-5.2122558426	-3.8581146482	 0.107624
H	 0.6329693182	-3.7002775059	-3.9458995264	 0.126332
