11
gdb 132702	3.20425	1.41246	0.98032	2.3387	56.04	-0.2597	-0.0517	0.2079	1037.8741	0.066048	-537.991833	-537.985244	-537.9843	-538.023109	24.703	
O	 0.0863851062	 1.3060860516	 0.1232964134	-0.384408
C	 0.0689754759	-0.0291120788	 0.0534522345	 0.462755
N	 0.0806808892	-0.5855900121	-1.1562213233	-0.345876
C	 0.0638615472	-1.9226104184	-1.1847733482	-0.09006
C	 0.0363237047	-2.6779415254	-0.029804792	 0.083902
F	 0.0192812631	-4.0072094996	-0.0495394911	-0.052163
C	 0.0272842646	-1.9675548887	 1.1728119005	 0.236669
F	 0.0010035418	-2.6323885349	 2.3105939262	-0.034968
N	 0.043150081	-0.6616664577	 1.229254379	-0.333599
H	 0.1048586025	 1.6277057934	-0.7885586911	 0.312427
H	 0.0724164438	-2.4106688694	-2.1552068979	 0.14532
