16
gdb 48006	5.13053	0.74132	0.70562	3.2937	81.58	-0.2496	-0.0653	0.1844	1564.8965	0.123577	-400.671952	-400.663564	-400.66262	-400.706461	29.638	
O	-0.0611643358	-0.1465958287	 0.126451725	-0.227997
C	-0.0012539667	 1.055481218	 0.2490415025	 0.020405
C	 1.2082265797	 1.828285924	 0.1349141018	-0.009696
C	 2.2077880048	 2.5044438142	 0.053443618	 0.180902
C	 3.4096994831	 3.3010461948	-0.0603931905	-0.16258
C	 4.1137001496	 3.3964041281	-1.4559191819	-0.266424
C	 3.8670262641	 4.8979088598	-1.3684969502	-0.006228
C	 2.4398756896	 5.1968400253	-1.1599177207	-0.23724
N	 3.2421504892	 4.8107136435	 0.0179506432	-0.130386
H	-0.9045494183	 1.6616553479	 0.4649508181	 0.102074
H	 4.1137167495	 3.0032248643	 0.7213107155	 0.129264
H	 5.1648229047	 3.1124027659	-1.3972075186	 0.125945
H	 3.644080543	 2.8699257437	-2.2898658497	 0.122746
H	 4.5969086697	 5.6641189795	-1.6062804865	 0.10487
H	 2.1423746092	 6.239963441	-1.1279817594	 0.130096
H	 1.6747538647	 4.5163160187	-1.5266362566	 0.124248
