21
gdb 98659	3.06544	0.9569	0.86518	1.7384	79.16	-0.2325	-0.0136	0.2189	1466.812	0.179829	-424.238831	-424.228677	-424.227733	-424.27582	35.974	
C	-0.7188545959	 1.6111480679	-0.1645125099	-0.379487
C	-1.0154449917	 0.1376244541	-0.4274164351	-0.27829
C	-0.8473099702	-0.7406712984	 0.7970524163	 0.338819
O	-0.5110788547	-0.3186727361	 1.8807847293	-0.306169
C	-1.1019192916	-2.2334150161	 0.6050458778	 0.057073
C	-1.8684634485	-2.9706546544	 1.7164410497	-0.311053
C	-2.8606610866	-3.341470682	 0.5897018778	 0.169686
C	-4.3051351597	-2.9076137002	 0.7230425476	-0.395993
O	-2.1234922116	-2.5321948149	-0.3713013975	-0.312449
H	-0.8519671563	 2.2007500677	-1.0757416633	 0.110338
H	-1.3833571529	 2.0114269365	 0.6057192105	 0.129276
H	 0.3059028099	 1.7482018611	 0.1906178058	 0.129021
H	-2.0342035574	-0.0217039678	-0.8010668412	 0.140387
H	-0.3708483656	-0.2704633614	-1.2193110825	 0.1244
H	-0.1414719524	-2.6986510574	 0.331317203	 0.099032
H	-1.3460971047	-3.7997172262	 2.1934486732	 0.113299
H	-2.2682513041	-2.3049867719	 2.483362783	 0.124621
H	-2.8060347603	-4.3992520371	 0.2997212045	 0.078479
H	-4.3709156052	-1.8597555566	 1.0323507726	 0.120235
H	-4.8289680733	-3.019390812	-0.2315015312	 0.128579
H	-4.8188925173	-3.5234535646	 1.4693505097	 0.120197
