23
gdb 59662	2.31391	1.2852	1.03725	1.136	81.62	-0.2408	0.0639	0.3047	1298.3445	0.203157	-425.416564	-425.406026	-425.405082	-425.451877	39.281	
C	-0.071181181	 1.5535533691	-0.1616576764	-0.413939
C	 0.0284548916	 0.0433211253	 0.0339681561	 0.10997
O	 0.7831954331	-0.3096948101	 1.1932571411	-0.433572
C	-1.3509294957	-0.6023037585	 0.1134377368	 0.106246
O	-2.1400490896	-0.3969138193	-1.0776653034	-0.300197
C	-2.5090235119	-1.7915064785	-1.1252924025	-0.104293
C	-1.5227476606	-2.1498124732	 0.0177466859	 0.261552
C	-0.2933615836	-2.9249061105	-0.4566168528	-0.453455
C	-2.1394713517	-2.80079486	 1.2523407398	-0.456649
H	 0.9254981788	 1.9967540514	-0.2373264656	 0.120551
H	-0.6350570213	 1.7816126776	-1.0703117897	 0.14246
H	-0.5938933733	 2.0205561045	 0.6832495271	 0.103095
H	 0.580860081	-0.3897425497	-0.8054292752	 0.091241
H	 0.3987060233	 0.1562117581	 1.9444313669	 0.278647
H	-1.8702500371	-0.1901540538	 0.9975929456	 0.046733
H	-3.5699000428	-1.9392391052	-0.8813433197	 0.092048
H	-2.3030559199	-2.2345602988	-2.1070573197	 0.098486
H	 0.1046479982	-2.5244527632	-1.3938697061	 0.118186
H	 0.5033606321	-2.8905560355	 0.2919604779	 0.137394
H	-0.5549862994	-3.9741844809	-0.6336006415	 0.107256
H	-2.4324516344	-3.836897445	 1.0480231172	 0.113919
H	-1.4211034652	-2.8151683021	 2.079565286	 0.121741
H	-3.0303899507	-2.2600870616	 1.5886975622	 0.112582
