17
gdb 110763	2.56651	1.29317	1.09095	3.1562	70.35	-0.229	0.0128	0.2418	1157.3508	0.135336	-455.093067	-455.084201	-455.083257	-455.126855	32.992	
N	-0.0226101901	 1.4958967706	 0.0809381801	-0.598176
C	 0.0006997971	 0.0892949007	-0.0238535309	 0.174519
C	 1.1908871184	-0.7097689039	-0.5453257021	-0.101024
C	 2.0052127058	-1.7029825474	 0.2585406744	-0.101356
O	 2.67551293	-2.6302331808	-0.5803112765	-0.4139
C	-0.1704133071	-0.9972150715	-1.1026112301	-0.003906
O	-0.9083684689	-1.8346778933	-0.175618611	-0.27812
C	-0.866000075	-0.8258874759	 0.7936550475	 0.403586
N	-1.4548872275	-0.7393028617	 1.8944749604	-0.544681
H	 0.6805041506	 1.9433728729	-0.4920379393	 0.240304
H	-0.9329735584	 1.8877857132	-0.1316719944	 0.245722
H	 1.7910545928	-0.1111759573	-1.231600204	 0.101415
H	 2.7879713877	-1.1739714161	 0.8108109567	 0.120165
H	 1.3675460801	-2.2086522034	 0.9944470584	 0.113349
H	 2.0015479739	-3.1705210336	-1.0060953118	 0.288134
H	-0.497120643	-0.9856093378	-2.1333801036	 0.121541
H	-2.0168962664	-1.5716735145	 2.0810594363	 0.232426
