18
gdb 71690	2.74246	2.27718	1.67996	2.2961	73.33	-0.2213	0.0591	0.2805	850.1455	0.150324	-401.878761	-401.872426	-401.871482	-401.908967	27.293	
O	 0.0302625767	 1.3570208819	 0.0048038259	-0.49262
C	 0.0492505925	-0.0318674164	-0.0197680765	 0.405975
C	-1.2641852762	-0.806629031	-0.2063685919	-0.215867
N	-0.4323487079	-1.9393540737	-0.7339456847	-0.156392
C	 0.5899087639	-2.1974277996	 0.3476719358	 0.005611
C	 1.7803030574	-1.7019797573	-0.5240442914	-0.051773
C	 2.2870067321	-0.8321473783	 0.6418344638	-0.270402
C	 0.7997090392	-0.807244738	 1.079996695	-0.125066
C	 0.6192316438	-0.9293149154	-1.1979485232	-0.079651
H	 0.8842998177	 1.6764606566	 0.3151415661	 0.282603
H	-1.87629479	-1.0307646125	 0.6736908953	 0.098045
H	-1.8892056157	-0.4035176595	-1.0077808851	 0.113258
H	 0.5400627547	-3.1280980495	 0.9107167881	 0.074511
H	 2.420364634	-2.3443644653	-1.1255088739	 0.076324
H	 2.9124978348	-1.4041235766	 1.3326374135	 0.10648
H	 2.7827130447	 0.1206118691	 0.4165338349	 0.082587
H	 0.4977851604	-0.6197230459	 2.1102643134	 0.069909
H	 0.593363198	-0.5789709785	-2.2290477251	 0.076469
