15
gdb 133007	3.6326	1.16048	0.88439	0.9792	76.87	-0.2059	-0.0545	0.1514	1230.5545	0.112872	-458.11307	-458.105163	-458.104219	-458.145831	29.098	
C	 0.1150388856	 1.3966498586	 0.0075143829	-0.324105
N	 0.0290681306	-0.0524623568	 0.0043655551	-0.327051
C	-1.1253909473	-0.597897125	 0.0114170355	 0.365534
N	-1.1798246374	-2.0054358444	 0.0084305803	-0.405251
C	-2.3408037124	-2.6923014839	 0.0150365467	 0.374404
F	-2.2002774194	-4.0063970407	 0.0106796275	-0.049644
C	-3.540466464	-2.0597836663	 0.0252803236	-0.213828
N	-3.5746722247	-0.6872861335	 0.0291068955	-0.213953
C	-2.4694447697	-0.0101242079	 0.0228399848	-0.084944
H	 1.1687981517	 1.6869572546	-0.0001640999	 0.122908
H	-0.3576913558	 1.8548344253	-0.8742290482	 0.114371
H	-0.3434312374	 1.8500568699	 0.8992031619	 0.114388
H	-0.2956470091	-2.4965258386	 0.000710599	 0.274258
H	-4.4712070729	-2.6085295432	 0.0305711751	 0.129036
H	-2.5433024376	 1.072745492	 0.0262949804	 0.123879
