21
gdb 95836	2.85426	1.15314	0.87883	1.3601	74.46	-0.2438	0.0682	0.3121	1323.4023	0.183298	-461.353347	-461.344218	-461.343274	-461.387271	35.04	
O	-0.1975286474	 1.4962148845	-0.2351821168	-0.430844
C	 0.0022044834	 0.1029141311	-0.0106572905	 0.10191
C	-1.3926281397	-0.5013039617	 0.1633054584	-0.209807
C	-1.4638177401	-1.8780108249	 0.8469878325	-0.215785
C	-0.4265236199	-2.9351799787	 0.4272744787	 0.11455
O	-1.0732776158	-4.1950871707	 0.5882242081	-0.433625
C	 0.1243562289	-2.7860830644	-1.0021679429	-0.104216
O	 1.1666862887	-1.8295365394	-1.0716090211	-0.243204
C	 0.7602399663	-0.4863198526	-1.2135704586	-0.097853
H	 0.6651067435	 1.9121055518	-0.3357343757	 0.282894
H	 0.5990616027	-0.0625288551	 0.9015784429	 0.068917
H	-1.9808445653	 0.2086717287	 0.7528998334	 0.111966
H	-1.8692282757	-0.5396777963	-0.823960715	 0.10201
H	-1.4043076237	-1.7544038942	 1.9335893963	 0.10549
H	-2.4487227108	-2.3119147581	 0.6444237852	 0.117673
H	 0.4517936892	-2.8680030183	 1.0878878872	 0.073823
H	-0.4063224264	-4.8856682801	 0.515211466	 0.281689
H	 0.5750115162	-3.7415504698	-1.2966067161	 0.091086
H	-0.6767933648	-2.5626382318	-1.722735141	 0.096879
H	 0.1343241593	-0.3528007699	-2.1114979637	 0.095899
H	 1.6870215013	 0.08032731	-1.3674968874	 0.090547
