24
gdb 6802	5.93659	0.70119	0.65575	0.7982	83.56	-0.2487	0.0879	0.3366	1834.1954	0.220905	-351.414863	-351.404003	-351.403059	-351.451352	38.13	
C	 0.0352388036	 1.5022593722	-0.0055395736	-0.381939
C	-0.0285512135	-0.0269094476	-0.0098660042	-0.182528
C	-1.4582199084	-0.5504044035	 0.0171373097	-0.029053
O	-1.4293494085	-1.9605240328	 0.0115746253	-0.250338
C	-2.7107103063	-2.5514669012	 0.035984414	-0.037989
C	-2.567542811	-4.0722976487	-0.0171811739	 0.021868
C	-3.9384363013	-4.7401869826	 0.1436487292	-0.39226
C	-1.8668680358	-4.5190021773	-1.305987668	-0.378926
H	 1.0711298304	 1.8529186916	-0.0237423957	 0.11655
H	-0.4735860637	 1.9261089202	-0.8784693088	 0.115674
H	-0.4403483514	 1.9194921652	 0.8890584221	 0.115644
H	 0.4710308766	-0.4262657622	-0.9000156513	 0.105371
H	 0.506394078	-0.432773969	 0.8564345894	 0.105706
H	-1.9837609365	-0.1807485593	 0.9157501565	 0.079877
H	-2.0204216872	-0.1747831551	-0.8563845614	 0.080443
H	-3.2508282402	-2.2513796786	 0.9509273617	 0.077924
H	-3.3118602732	-2.1990920798	-0.8223623935	 0.077116
H	-1.9369822761	-4.3597986938	 0.8349143319	 0.081263
H	-4.6106890269	-4.4630659601	-0.6774082661	 0.11226
H	-3.8442431479	-5.8305648873	 0.1370400185	 0.11359
H	-4.4218768938	-4.4515837119	 1.0832209988	 0.11025
H	-2.4787016829	-4.2788427465	-2.1844665774	 0.10482
H	-0.9043827572	-4.0147908771	-1.4173381706	 0.12922
H	-1.6957258068	-5.600364465	-1.3060596726	 0.105457
