14
gdb 4580	5.84594	1.56079	1.24134	1.2359	67.81	-0.2381	-0.0442	0.1939	928.1787	0.108769	-378.787945	-378.781086	-378.780142	-378.819185	25.468	
C	-0.0400342325	 1.4996396317	 0.022844598	-0.470811
C	 0.0111027748	-0.003255345	 0.0140786249	 0.308655
N	 0.132881167	-0.6177401644	-1.1772102969	-0.280925
C	 0.1785233034	-1.9395470039	-1.1928458457	-0.083523
C	 0.1023934957	-2.681764814	-0.0033513799	 0.403464
O	 0.1523230431	-4.0267948026	-0.0602521816	-0.41417
N	-0.0174437304	-2.0985373199	 1.1775320735	-0.335859
C	-0.0624530132	-0.7608500822	 1.1793670374	-0.067168
H	 0.8674189574	 1.9199512515	-0.4225403577	 0.140839
H	-0.8857741243	 1.8611969518	-0.5708734396	 0.140836
H	-0.1390992458	 1.8894294151	 1.0391647289	 0.121647
H	 0.2767139119	-2.4433309962	-2.1501597905	 0.123953
H	 0.0853645874	-4.3411634138	 0.8523456597	 0.300879
H	-0.1609556245	-0.2815051581	 2.1500283294	 0.112181
