19
gdb 106019	2.60643	1.57273	1.22684	3.2834	79.16	-0.2316	0.0117	0.2432	1091.4133	0.159395	-385.868656	-385.860529	-385.859585	-385.901584	31.221	
C	-0.2676737075	 1.4939971161	-0.033091263	-0.378407
C	 0.1451150357	 0.0158676725	 0.0160330014	-0.312006
C	 0.8047411864	-0.4344587495	-1.254748589	 0.229065
C	 0.0396338009	-0.9001857043	-2.5066576845	-0.109485
C	 0.9578622868	-0.7392861126	-3.7228341678	-0.243286
C	 2.0938755243	-1.2575979714	-2.7957586893	-0.190356
C	 0.9770772619	-1.8595173535	-1.8465431552	-0.138786
C	 2.2040930092	-0.16356798	-1.7162230731	 0.394689
O	 3.1176127362	 0.4617936866	-1.2500883864	-0.352487
H	 0.6053357598	 2.1301985785	-0.2053048629	 0.140938
H	-0.9840377108	 1.6774327173	-0.8405077591	 0.114823
H	-0.7320531591	 1.8017438918	 0.9084633041	 0.113157
H	 0.8395540581	-0.1412773414	 0.8499616737	 0.116673
H	-0.7314381963	-0.6129868628	 0.2161223892	 0.099657
H	-1.0436630763	-0.9051505271	-2.4820489404	 0.096991
H	 0.7088476571	-1.4627556658	-4.5038269913	 0.109501
H	 1.0848930539	 0.2565171665	-4.1619920613	 0.104117
H	 2.9780102098	-1.7614484518	-3.1756906099	 0.092462
H	 0.8710322898	-2.8039331591	-1.3352572553	 0.112742
