20
gdb 11135	3.58485	1.23273	1.05082	2.5687	71.41	-0.2462	0.0716	0.3177	1195.2419	0.176536	-386.127953	-386.119076	-386.118132	-386.162097	32.257	
C	-0.1412883549	 1.3479681177	 0.5902981309	-0.380126
C	-0.1134021237	-0.1281374772	 0.1838350832	-0.189579
C	-1.4841565678	-0.6478696794	-0.2111166908	 0.180112
C	-1.6767418566	-2.1719593459	-0.3759191607	-0.345841
C	-2.7302782642	-2.0265618728	 0.7390012597	 0.141129
C	-2.4965415184	-2.7423346043	 2.0580315987	-0.065257
O	-3.2829556212	-2.1639021481	 3.0797945966	-0.421444
O	-2.437762828	-0.6117318491	 0.8882600647	-0.328844
H	 0.8476217075	 1.6909215022	 0.9079463077	 0.113473
H	-0.4647859094	 1.9823143686	-0.2423125752	 0.114856
H	-0.8387955816	 1.5019191752	 1.4186212561	 0.133286
H	 0.5666602874	-0.2792670808	-0.6653928868	 0.097465
H	 0.2705075058	-0.7385773211	 1.0105844722	 0.097485
H	-1.8750213339	-0.0649173248	-1.0574167471	 0.07429
H	-2.0463558136	-2.507351636	-1.3452525095	 0.111303
H	-0.8033754246	-2.7676861088	-0.096538564	 0.107228
H	-3.7701341015	-2.1680194819	 0.4174195783	 0.081922
H	-2.7875854677	-3.7962475125	 1.9785786774	 0.105805
H	-1.4222621594	-2.7061517928	 2.3054280849	 0.079687
H	-3.1104149642	-1.2149765382	 3.0353177039	 0.29305
