22
gdb 109510	1.85417	1.44802	1.04379	0.998	90.31	-0.2195	0.036	0.2555	1306.7818	0.190317	-367.162448	-367.151688	-367.150744	-367.197739	39.977	
C	-0.1058083653	 1.5594283497	 0.1471775781	-0.374943
C	 0.1952035918	 0.0941338441	-0.159624262	-0.118621
N	 0.7196196264	-0.5665582514	 1.0346047729	-0.132231
C	-0.2133372083	-1.255081673	 1.9542636048	-0.267833
C	-1.6202485127	-1.3407368166	 1.6785400575	 0.355544
C	-2.8060925247	-1.3886737698	 1.4754087503	-0.464038
C	 0.7987947697	-2.0214278907	 1.1300256257	 0.305141
C	 0.3283894956	-2.9149776153	-0.0023068095	-0.460361
C	 2.046800657	-2.5201133776	 1.8347608086	-0.436785
H	 0.7840093533	 2.0637298689	 0.5341235784	 0.122275
H	-0.440533339	 2.0801309284	-0.7555351103	 0.108099
H	-0.8981373874	 1.6403164626	 0.8977374425	 0.125767
H	-0.7080038027	-0.3851399819	-0.5619024392	 0.09977
H	 0.9723806489	 0.0230522696	-0.9297654941	 0.099659
H	 0.0174611891	-1.0880566494	 3.0053095918	 0.105925
H	-3.8522885284	-1.4395326774	 1.3006588725	 0.19745
H	-0.6460665677	-2.6229577596	-0.3944067696	 0.135416
H	 1.0542788313	-2.9036839914	-0.8233175271	 0.119088
H	 0.2471801548	-3.9482348402	 0.3505372588	 0.122206
H	 1.8759835313	-3.5031222625	 2.2871880957	 0.115404
H	 2.8743797247	-2.6172346502	 1.1225340346	 0.117293
H	 2.3554013923	-1.8201153262	 2.6145790996	 0.125775
