21
gdb 74036	2.54382	1.94381	1.38253	0.4491	88.71	-0.2105	0.0041	0.2146	1017.1358	0.184964	-349.929228	-349.921736	-349.920792	-349.960724	30.953	
C	-0.1325444052	 1.3466699872	-0.2343661769	-0.48633
C	-0.0262699121	-0.103017245	 0.1206362637	 0.273048
C	-1.0450449295	-0.9617063544	 0.3220940432	 0.015936
C	-2.257057885	-0.9991830389	-0.5811218499	-0.261062
C	-1.5669330765	-1.8384888654	-1.7270670012	-0.221687
C	-0.5216507129	-2.733920246	-1.0063250913	-0.036124
C	 0.7729410069	-2.3050547681	-0.2371508178	-0.046306
C	 1.2741324747	-0.8694325898	-0.0891183499	-0.31068
C	-0.5489714849	-2.390032608	 0.4514699095	-0.115514
H	 0.4669412403	 1.9622617116	 0.4493571627	 0.126251
H	 0.252581965	 1.5460236012	-1.2435763071	 0.120443
H	-1.1639005479	 1.7050986603	-0.1802139793	 0.123637
H	-3.1095801051	-1.5438354097	-0.162369038	 0.098137
H	-2.6025316197	-0.0217911009	-0.9253186003	 0.09661
H	-2.2827370115	-2.4734198933	-2.2620327796	 0.093642
H	-1.121531744	-1.160016788	-2.4623572298	 0.100787
H	-0.4827037353	-3.772974067	-1.3220756977	 0.078259
H	 1.4949319895	-3.111310234	-0.1341284931	 0.073086
H	 1.7799921496	-0.4768082484	-0.9824991828	 0.101379
H	 2.0046646209	-0.7992821384	 0.7309927826	 0.100488
H	-0.8266933875	-3.0455410051	 1.269703873	 0.076
