16
gdb 11055	3.55185	2.46078	2.08293	1.3956	63.82	-0.2426	0.0028	0.2454	727.0773	0.13132	-383.737311	-383.73094	-383.729996	-383.767312	25.906	
C	 0.0703944253	 1.489742201	 0.0132404633	-0.492436
C	-0.040431357	-0.0070750315	 0.0421807811	 0.450246
O	 0.6271656623	-0.5888521773	-1.1201796312	-0.305806
C	 0.9647326164	-1.912666982	-0.7065780102	-0.081058
C	 0.3553948632	-1.9604842027	 0.7330103117	-0.035733
O	 0.6442049707	-0.60885878	 1.1245287297	-0.25844
C	-1.1545055683	-1.9258416361	 0.5420751866	-0.097998
C	-1.409104771	-0.6924704287	 0.1047529928	-0.105079
H	 1.1224119007	 1.7824912585	 0.0113234655	 0.139121
H	-0.4052620389	 1.8795947443	-0.8900521658	 0.133373
H	-0.4235873562	 1.9201894114	 0.8876565789	 0.132683
H	 0.5329318203	-2.6564977605	-1.3844144539	 0.101625
H	 2.0537771188	-2.0251583769	-0.6745361288	 0.108717
H	 0.7868986867	-2.6814153415	 1.4240686639	 0.090563
H	-1.8171975681	-2.7771763184	 0.6132602951	 0.109296
H	-2.3335308052	-0.2710224396	-0.2651353986	 0.110925
