11
gdb 917	5.76839	2.94566	1.94992	2.6467	57.	-0.2342	-0.0702	0.164	600.6297	0.080481	-339.450073	-339.444769	-339.443825	-339.47919	19.72	
N	-0.0611707222	 1.2848853596	 0.3179473903	-0.518843
C	-0.0234194538	 0.0703690439	-0.0407464995	 0.361201
O	 1.1665298781	-0.563102661	-0.3785131756	-0.222428
C	 1.1400218277	-1.8654126595	-0.7541741415	 0.0524
C	 0.001720994	-2.5714223493	-0.8129568694	-0.086687
N	-1.2271340836	-2.0046138768	-0.4894732903	-0.223783
C	-1.2210947636	-0.7699167192	-0.130747876	-0.008508
H	 0.8709645974	 1.7009437846	 0.3189013677	 0.229675
H	 2.1273302055	-2.2412641629	-0.990906972	 0.145393
H	 0.0026098224	-3.6102124721	-1.1155093555	 0.126415
H	-2.155625702	-0.2807486273	 0.1321998617	 0.145166
