21
gdb 72375	2.26495	1.89184	1.42001	0.1062	87.63	-0.2354	0.0277	0.2631	1033.4206	0.184552	-349.986974	-349.979136	-349.978192	-350.019112	31.862	
C	 0.2444437014	 1.475360578	-0.1596478107	-0.452503
C	-0.0871035852	-0.011155856	 0.038444033	 0.295022
C	-1.6176958478	-0.237557596	 0.264043977	-0.312457
C	-1.6825478528	-1.1655812009	 1.4480215593	-0.062791
C	-0.4894994554	-1.3759405301	 1.9989976008	-0.072607
C	 0.6288955151	-0.6589023799	 1.2865942644	-0.094359
C	 1.7327557042	-1.6066188007	 0.7297727247	-0.277443
C	 1.4091908213	-1.6955654445	-0.7399733117	-0.068822
C	 0.4475742717	-0.851144369	-1.1022872443	-0.103684
H	 1.3229219966	 1.6288495773	-0.2704409504	 0.113063
H	-0.2418205012	 1.8724541749	-1.0581661906	 0.110027
H	-0.0996025555	 2.0695488061	 0.6943739351	 0.112023
H	-2.1375711492	 0.7079601648	 0.4735748502	 0.097195
H	-2.104195129	-0.6590269245	-0.6248406377	 0.099135
H	-2.6167958064	-1.5858952426	 1.8058094266	 0.088127
H	-0.3055047709	-1.9968888038	 2.8704184501	 0.087076
H	 1.0768441517	 0.1010567655	 1.9386286073	 0.068741
H	 2.7416971132	-1.2027921744	 0.8895078876	 0.100504
H	 1.7164095798	-2.5868814977	 1.2222174572	 0.100435
H	 1.9310479537	-2.3701360537	-1.4108561413	 0.088545
H	 0.0662617047	-0.7333903928	-2.1125286068	 0.084774
