12
gdb 2886	6.13505	2.12769	1.82654	4.4719	55.64	-0.2685	-0.0142	0.2543	678.3839	0.090997	-323.382399	-323.376361	-323.375417	-323.41262	21.369	
N	 0.0527992759	-1.1154416119	 0.2628103044	-0.317722
C	 0.01509554	 0.0266753964	 0.092882774	 0.26682
C	-0.0176018112	 1.4890556912	-0.146051124	-0.049358
O	-0.7377188472	 2.1552556475	 0.8815282142	-0.255782
C	 0.1448844708	 2.9975794113	 1.6305930629	-0.117974
C	 1.4496496136	 2.9497028302	 0.8906387981	-0.083948
C	 1.3689971706	 2.0972809994	-0.1219374752	-0.084813
H	-0.5326874855	 1.6497825645	-1.1042715892	 0.13654
H	-0.2876330516	 4.0061089738	 1.6759337101	 0.123864
H	 0.2389637678	 2.6289389847	 2.6632309159	 0.125182
H	 2.3149627864	 3.5331131206	 1.1774298965	 0.124642
H	 2.1378444704	 1.8231570123	-0.8306576177	 0.132549
