21
gdb 95319	2.55726	1.66986	1.45424	2.52	75.89	-0.235	0.0553	0.2903	1009.5711	0.186299	-424.245091	-424.237491	-424.236547	-424.276704	31.208	
O	 0.1096983292	 1.3978948026	-0.306179668	-0.440001
C	 0.063106971	 0.0028741478	-0.0185950165	 0.126499
C	 0.8301521185	-0.390531906	 1.258770497	-0.234584
C	 0.0092105311	-0.2003125814	 2.5537866799	-0.226705
C	-1.4406855825	-0.7022304737	 2.3864714142	-0.020036
C	-1.4984874593	-2.1061279843	 1.7583488242	-0.079223
O	-1.3923506591	-1.9102161559	 0.3395013886	-0.278376
C	-1.3957522887	-0.5017919927	 0.0655761246	 0.087986
C	-2.1177611122	 0.1094243726	 1.2684384187	-0.2369
H	-0.1330390377	 1.8814486605	 0.4893799304	 0.279291
H	 0.5425798057	-0.472078518	-0.880273092	 0.089352
H	 1.1079233812	-1.4452602591	 1.1682088116	 0.116337
H	 1.7649456653	 0.1776230129	 1.3008050079	 0.10028
H	 0.5057018441	-0.7242120522	 3.3782654098	 0.099355
H	-0.0201565735	 0.859097152	 2.8434767668	 0.087319
H	-1.9777901854	-0.6619233463	 3.337717369	 0.067785
H	-0.6858459507	-2.7607449473	 2.0959956063	 0.098923
H	-2.451154971	-2.6048158396	 1.9822642185	 0.095726
H	-1.9060110266	-0.3412742222	-0.8875845025	 0.078524
H	-3.1923836656	-0.0892673057	 1.2127832727	 0.10316
H	-1.9813989538	 1.1900323959	 1.3645245587	 0.085288
