19
gdb 57635	3.3019	0.96912	0.92641	4.4991	75.86	-0.254	0.0322	0.2863	1331.5843	0.158107	-419.189917	-419.18017	-419.179226	-419.224743	35.6	
C	 0.1551718529	 1.5196027652	 0.1934514899	-0.395621
C	-0.0413738543	-0.0019833364	 0.0376950194	 0.08111
N	 0.599561891	-0.66886463	 1.1822044367	-0.532973
C	-1.5500088067	-0.3752856784	-0.1465301103	-0.246507
C	-2.4472623327	 0.1792344189	 0.9358105098	 0.071046
C	-3.4498695461	-0.646530626	 1.6213649303	-0.182203
O	-2.2285129456	-0.2948267441	 2.2745819168	-0.237036
C	 0.6615969111	-0.4445979815	-1.1842869895	 0.293298
N	 1.1794817095	-0.7999770901	-2.1540578021	-0.339384
H	 1.2207691492	 1.7521703249	 0.215369066	 0.14892
H	-0.3150125486	 2.0681531876	-0.6272756699	 0.125819
H	-0.2845480995	 1.8522009216	 1.1376060803	 0.132867
H	 0.0118999406	-0.5251903282	 1.9997445463	 0.25573
H	 0.6199910324	-1.6729521803	 1.0249130775	 0.235122
H	-1.9066896583	-0.0025814947	-1.1142408215	 0.123565
H	-1.6267364011	-1.467227295	-0.1730685823	 0.112232
H	-2.6380772785	 1.2512873727	 0.8876223118	 0.106882
H	-4.3447845949	-0.182294009	 2.0317895246	 0.124533
H	-3.5507198604	-1.6971748471	 1.3534888963	 0.122602
