20
gdb 13145	3.95184	1.16174	0.98788	1.9822	71.93	-0.2412	0.0847	0.3259	1239.5986	0.175674	-386.110412	-386.10124	-386.100296	-386.144961	32.106	
C	 0.0560875369	 1.3721920241	 0.1877756316	-0.227558
O	 0.0098489193	-0.0276233877	 0.0499092711	-0.235111
C	-1.3076419606	-0.5359958454	 0.0288226929	-0.072817
C	-1.2125414764	-2.0463583274	-0.078542976	-0.067886
C	-0.788837278	-2.7625976343	 1.2189182328	-0.073422
O	-2.1148759769	-3.3023870009	 1.405849508	-0.293435
C	-2.5249510726	-2.8618404505	 0.0892457239	 0.143039
C	-3.8836108641	-2.1875923388	 0.0949849554	-0.406636
H	 1.1083984144	 1.666491787	 0.1943551552	 0.127899
H	-0.4503295445	 1.8825235341	-0.6470910791	 0.103448
H	-0.4127652786	 1.7069066818	 1.1268402008	 0.104511
H	-1.8426046798	-0.2424240312	 0.9477558161	 0.091187
H	-1.8701824174	-0.1165807169	-0.8233679225	 0.085501
H	-0.6248467904	-2.3005174887	-0.9633909824	 0.082067
H	-0.039322516	-3.5534640531	 1.0858739069	 0.096624
H	-0.4826300854	-2.1172483495	 2.0500479725	 0.105849
H	-2.5497828593	-3.7173487292	-0.6028658579	 0.070395
H	-3.9060577213	-1.3232393596	 0.7636554466	 0.121531
H	-4.159325516	-1.8625642503	-0.9140918299	 0.115948
H	-4.6414638135	-2.8985260435	 0.4391744139	 0.128868
