16
gdb 8602	4.30646	2.06456	1.86501	2.649	65.44	-0.239	0.0595	0.2985	756.3757	0.130685	-383.607344	-383.601193	-383.600249	-383.637151	25.739	
O	 0.2842063597	 1.3727088705	-0.2870255894	-0.424419
C	 0.084649067	 0.0172385932	-0.0473263242	 0.11802
C	 0.1731641524	-0.4642888268	 1.4838003641	-0.36574
C	-1.351510948	-0.5087269472	 1.4310344593	 0.369347
C	-2.8239768326	-0.9730802528	 1.5447313231	-0.310107
C	-2.6777414091	 0.1217282769	 0.4089651502	 0.022577
O	-1.8672332666	 0.9149336703	 1.3422247542	-0.354687
C	-1.3924267287	-0.5792269153	-0.0986570411	-0.070798
H	-0.3921628983	 1.8179735871	 0.2434766387	 0.287355
H	 0.7645415308	-0.5301630048	-0.7044690961	 0.092878
H	 0.6247639365	-1.4562625308	 1.5660823642	 0.114428
H	 0.6303397338	 0.2234940815	 2.1988857712	 0.120367
H	-3.0392123523	-2.0008261238	 1.2432304507	 0.107608
H	-3.3925097841	-0.6518944912	 2.4191966951	 0.11629
H	-3.4810981473	 0.6390448216	-0.1222264843	 0.09855
H	-1.4901438633	-1.5498037783	-0.5881201958	 0.078333
