19
gdb 100392	1.79672	1.3545	0.94776	2.6975	74.05	-0.2697	-0.0503	0.2194	1310.1957	0.15458	-460.198318	-460.187819	-460.186875	-460.234202	36.533	
C	 0.1474177197	 1.6271360011	 0.1232845335	-0.403727
C	 0.1436278192	 0.0979656908	 0.0282109583	-0.202124
C	 0.704981135	-0.464879337	-1.2973680501	 0.242336
C	-0.107426117	-0.0552909423	-2.522817537	-0.422089
O	 2.0630103997	 0.0418856408	-1.3692109682	-0.225675
C	 2.9047058852	-0.4875761629	-2.2792178543	 0.160721
O	 4.0176071186	-0.0838045185	-2.432100331	-0.271005
C	 0.7476122329	-1.9858924271	-1.1187408777	 0.1212
O	-0.0836032824	-2.7411948536	-1.545721678	-0.24286
H	 1.152719231	 2.0246124287	-0.031911987	 0.148213
H	-0.521155819	 2.0830832574	-0.6122035409	 0.124052
H	-0.1940581312	 1.9362411573	 1.1152334663	 0.123726
H	 0.7413341677	-0.316536088	 0.848990232	 0.114828
H	-0.872993028	-0.2928882831	 0.1462560518	 0.121272
H	-0.1095141714	 1.0302893614	-2.6359557535	 0.137897
H	 0.3019919882	-0.4981966812	-3.4345497426	 0.130496
H	-1.1347616749	-0.4103605283	-2.4190604997	 0.146894
H	 2.467094494	-1.3270237366	-2.853195557	 0.0939
H	 1.6060729624	-2.3368806088	-0.5013777749	 0.101948
