18
gdb 111033	2.56697	1.25921	0.99092	3.5153	77.84	-0.2778	0.023	0.3008	1217.398	0.148557	-401.904509	-401.896183	-401.895239	-401.937952	31.291	
O	-0.109651184	 1.4448559528	-0.1682648096	-0.418709
C	 0.052122795	 0.0566804644	 0.0923662593	-0.144652
C	-1.3303600015	-0.5582365715	 0.0022510713	 0.032598
C	-2.0439977036	-0.8132638593	-1.3657038827	-0.069755
C	-1.0994011001	-2.0286673546	-1.5998233729	-0.265127
C	-1.5349447741	-2.1099158485	-0.1000065714	 0.207301
C	-2.9819963076	-1.7916775886	-0.5982919395	-0.256547
C	-1.1441447837	-3.1018753758	 0.8710915513	 0.15259
N	-0.8217647968	-3.8905640177	 1.6534450172	-0.353108
H	 0.7375190195	 1.8781143802	-0.0288995921	 0.291577
H	 0.7574672778	-0.39876964	-0.6161162046	 0.093113
H	 0.4502735207	-0.1186906401	 1.1043052405	 0.103297
H	-1.9748297454	-0.0835728202	 0.7488508747	 0.089305
H	-2.3385847283	-0.0607789486	-2.0937938874	 0.095811
H	-1.4827180637	-2.824519697	-2.2420137042	 0.110104
H	-0.0473762168	-1.8337754705	-1.8041115631	 0.112236
H	-3.658952635	-1.3567976056	 0.1401045457	 0.111003
H	-3.4641628525	-2.5759357494	-1.1853195026	 0.108963
