20
gdb 75945	2.20997	1.62421	1.03521	3.5202	82.17	-0.2353	0.0186	0.2539	1196.7349	0.171812	-403.207844	-403.198689	-403.197745	-403.242184	34.098	
C	-0.2541757263	 1.4987491039	 0.0290637062	-0.394589
C	 0.0783248519	-0.0112139242	 0.0019563546	-0.202116
C	 0.7887155446	-0.3218578444	-1.3173051571	 0.402316
O	 0.2397386477	-0.1166794591	-2.3867613561	-0.391053
N	 2.0573478955	-0.8127114786	-1.2525607575	-0.325482
C	 2.8299676683	-1.1374334882	-0.0709046836	-0.204862
C	 2.040188864	-0.9694911143	 1.1880764349	-0.155354
C	 0.8033463668	-0.4784643168	 1.2448269926	 0.315042
C	 0.0542428287	-0.3708690644	 2.547087558	-0.478674
H	 0.6564771154	 2.0954025332	 0.1461589065	 0.116855
H	-0.7352215207	 1.7757593101	-0.9107800787	 0.147665
H	-0.9294621337	 1.7411275413	 0.8533647207	 0.114228
H	-0.8810405075	-0.5437381684	-0.0654476289	 0.107797
H	 2.4729351775	-0.9815971806	-2.157286999	 0.245047
H	 3.1854404747	-2.1772484521	-0.140640173	 0.118564
H	 3.7393521095	-0.5154770818	-0.0271408821	 0.117358
H	 2.5444947759	-1.2900841461	 2.0957616608	 0.087294
H	 0.6259532241	-0.8015369656	 3.3730941147	 0.121774
H	-0.1717972701	 0.671108835	 2.8009862632	 0.132071
H	-0.9088452864	-0.8939112788	 2.4883467038	 0.126119
