16
gdb 15236	3.06664	1.54241	1.35213	3.6471	65.94	-0.251	0.0085	0.2595	963.8029	0.129578	-379.889901	-379.881308	-379.880364	-379.923133	30.288	
C	-1.7713515288	 0.7706444544	-0.9761866942	-0.326674
N	-0.8147809568	-0.2857413679	-0.6469748018	-0.08823
C	 0.4417230871	-0.3861956662	-1.3652316429	-0.030924
C	 0.8360830938	 0.5610760635	-2.4803509694	-0.100447
O	 0.0723716917	 0.3315756195	-3.6551947336	-0.410614
C	 0.4168459176	 0.0405490189	 0.081801109	-0.17965
C	 0.7386386048	 1.4056155904	 0.4228338465	 0.295789
N	 0.9814348197	 2.4975130666	 0.7193440283	-0.341344
H	-1.3363876509	 1.7729947615	-1.075112165	 0.132408
H	-2.2520342239	 0.506800528	-1.9205074567	 0.146537
H	-2.5277310821	 0.8045962884	-0.1875519679	 0.133773
H	 0.7465432533	-1.4195455683	-1.5417047129	 0.100755
H	 0.6569948486	 1.6014464832	-2.2022015515	 0.136988
H	 1.9153781023	 0.4587269549	-2.669082969	 0.106202
H	 0.2775363468	-0.5511217835	-3.9808507501	 0.287586
H	 0.6976738168	-0.6726434634	 0.8526828311	 0.137844
