17
gdb 22762	2.0748	1.4513	0.9897	4.0671	76.83	-0.2637	-0.0181	0.2456	1218.3194	0.134642	-417.971095	-417.96192	-417.960976	-418.005662	33.068	
C	-0.8581884755	 1.19946197	 0.3181209427	-0.401368
C	-0.094604714	-0.0676289794	-0.0493992034	-0.068903
C	 0.883947591	-0.0176935907	-1.2703092223	-0.252108
C	 2.023178012	-0.6536893503	-0.392842079	-0.25075
C	 3.310032385	 0.0234541884	-0.3859703067	 0.294659
N	 4.3192612645	 0.5862719308	-0.4163297257	-0.33153
C	 1.0933831279	-0.4574967202	 0.8086466781	 0.408194
N	 1.2204911068	-0.5167826339	 2.0643801178	-0.225472
O	 2.512833998	-0.8996849647	 2.434108557	-0.37926
H	-0.1790499386	 2.0524121121	 0.4126767619	 0.127411
H	-1.6035324233	 1.4365704691	-0.4477880058	 0.121505
H	-1.3762068223	 1.0749099843	 1.2731475526	 0.137724
H	-0.7926277339	-0.9086926858	-0.1430629777	 0.103012
H	 0.6019129071	-0.5941955115	-2.1514382333	 0.121488
H	 1.1268238911	 1.0034293587	-1.5687520232	 0.135053
H	 2.1788794507	-1.7164401967	-0.6079255199	 0.14534
H	 2.4829333434	-0.8465374201	 3.395868747	 0.315004
