19
gdb 35133	4.52675	0.81631	0.80455	3.3963	81.15	-0.2515	0.0181	0.2696	1477.5112	0.160558	-382.047948	-382.039397	-382.038452	-382.081897	31.898	
N	-0.0515540051	-1.2459811618	-0.1484331587	-0.327316
C	-0.043812553	-0.0946019016	-0.0367151431	 0.262294
C	 0.0076038055	 1.3663885847	 0.0876646102	-0.110541
C	-0.107541377	 1.8695384941	 1.5586109077	-0.261266
C	 1.4397192687	 2.0096519735	 1.5275883989	 0.044225
N	 1.36882861	 1.9480066212	 0.0396629393	-0.317422
C	 2.075855814	 3.2465849133	 2.0862783621	 0.030046
C	 2.5257099079	 3.2753271368	 3.5275352118	-0.273382
C	 3.5482237239	 3.2603339156	 2.4221041087	-0.272386
H	-0.6873747926	 1.8012302482	-0.6379402629	 0.122434
H	-0.614751075	 2.8345164285	 1.6075512401	 0.121186
H	-0.5398248999	 1.1828882057	 2.2845136481	 0.128654
H	 1.9123936832	 1.1192806203	 1.9694200527	 0.07451
H	 2.0732604986	 1.3852749909	-0.4258662458	 0.231637
H	 1.6660970314	 4.1682097726	 1.6823333541	 0.085964
H	 2.381709479	 4.1910259964	 4.0894166605	 0.116667
H	 2.4028927356	 2.371270654	 4.1153275758	 0.114375
H	 4.1131336261	 2.3463533561	 2.2684238438	 0.112642
H	 4.1084550687	 4.1664779616	 2.2220673368	 0.117681
