16
gdb 12655	3.28451	2.06206	1.29995	4.2183	68.69	-0.2244	-0.0561	0.1683	914.6497	0.131346	-379.958976	-379.95103	-379.950086	-379.991945	27.934	
C	-0.0344277615	 1.416140478	 0.0067767909	-0.341553
N	 0.0194476074	-0.024146872	 0.0583882644	-0.068067
C	-1.1845563377	-0.829339901	-0.1006070875	-0.174728
C	-0.7066238338	-2.2856190074	 0.0423223759	-0.347294
C	 0.8111584982	-2.1967907499	-0.0533134782	 0.344757
O	 1.5998954052	-3.1010965519	-0.1356097663	-0.303985
C	 1.1898609693	-0.7282092627	-0.0229582602	 0.27124
N	 2.3659197503	-0.2340034641	-0.0598889503	-0.557912
H	 0.9652941389	 1.8016348871	 0.2118143007	 0.174427
H	-0.3546886832	 1.7752831054	-0.981880315	 0.123162
H	-0.7376863183	 1.8000494493	 0.7550926342	 0.123258
H	-1.9275713875	-0.553866353	 0.6571577464	 0.115981
H	-1.6464158291	-0.6536430164	-1.0838187226	 0.113304
H	-0.9662591029	-2.7066995784	 1.0192131256	 0.150879
H	-1.1079786497	-2.9582082212	-0.7184020925	 0.1457
H	 3.0337867041	-1.0065098318	-0.0887793256	 0.230832
