19
gdb 65625	3.20692	1.27148	1.16171	3.0399	79.52	-0.2652	0.0256	0.2908	1128.9388	0.160833	-382.052959	-382.044595	-382.043651	-382.086003	32.244	
N	-0.0732500481	 1.3922881924	 0.1925235472	-0.540509
C	-0.0006668972	-0.0543511689	 0.0257273772	 0.139653
C	 0.3408568283	-0.8546672112	 1.3302145901	-0.273785
C	-0.9185781976	-1.7443100697	 1.1367440804	-0.001116
C	-2.1560498904	-1.3008491108	 1.9510923607	-0.222945
C	-2.4911419877	-0.2436141201	 0.8537948619	-0.245625
C	-1.3651099479	-0.8209357525	-0.0500720806	-0.046854
C	 0.8725408155	-0.4481451308	-1.0922129425	 0.228433
N	 1.5588391758	-0.7214603978	-1.9831089961	-0.34799
H	 0.8488369024	 1.7599333794	 0.4132161363	 0.24188
H	-0.3566726208	 1.8331431914	-0.6792799008	 0.241127
H	 1.299242686	-1.3744765145	 1.3041086232	 0.123507
H	 0.3041659534	-0.2124557672	 2.2140007082	 0.11325
H	-0.7304990381	-2.8113982445	 1.0212289094	 0.076147
H	-2.9136546176	-2.0857232653	 2.0205718802	 0.104008
H	-1.960252215	-0.9236073976	 2.9592289543	 0.099194
H	-3.4915355324	-0.3314078744	 0.4258214696	 0.102937
H	-2.3223543761	 0.7942662821	 1.1445506539	 0.12653
H	-1.6554884425	-1.19109648	-1.0328066326	 0.082159
