15
gdb 3203	3.40842	3.2297	1.99012	3.1588	61.18	-0.2357	-0.0087	0.227	679.7664	0.125066	-308.512092	-308.505571	-308.504627	-308.542332	24.479	
C	-0.083755405	 1.6183794563	-0.0267240152	-0.414359
C	 0.0684451416	 0.1028430716	-0.0444058981	-0.10227
C	 0.7173540661	-0.6237783035	-1.2406321918	-0.060372
C	 2.1564197029	-0.268660054	-1.3529403446	-0.280987
C	 1.751922844	-1.3104535705	-0.3133403005	-0.168763
C	 1.1274231284	-0.6052243965	 0.8539460315	 0.402597
O	 1.2672222051	-0.6709236094	 2.0426313463	-0.320376
H	 0.8401112863	 2.1263147855	-0.318503161	 0.119257
H	-0.8757183174	 1.9445435033	-0.7087715117	 0.119775
H	-0.3453350801	 1.9563801843	 0.9807629985	 0.136679
H	-0.8910618066	-0.3695557596	 0.2036406223	 0.104908
H	 0.1706113559	-1.0974526266	-2.045494688	 0.101809
H	 2.6917613521	-0.6852640803	-2.1999671569	 0.126939
H	 2.5232969394	 0.7035102261	-1.0381109294	 0.12545
H	 2.1638258676	-2.3115963869	-0.3305399814	 0.109713
