20
gdb 93420	3.1421	1.24297	1.01359	2.872	81.84	-0.237	-0.0522	0.1847	1215.8447	0.172232	-403.167179	-403.158583	-403.157639	-403.200469	33.163	
C	-0.1989900011	 1.5849374371	 0.0742976239	-0.382853
C	-0.0224858192	 0.0680575621	 0.0420628263	 0.033677
C	 0.6518317288	-0.408600109	-1.2677543665	-0.213904
C	 1.3144420058	-1.7949528152	-1.1599193072	-0.331011
C	 2.7000226785	-1.8086361477	-0.4963420666	 0.365867
O	 3.5626349966	-2.5648509325	-0.8984546648	-0.325921
C	 3.0054437514	-0.8204205436	 0.570183034	-0.14232
C	 2.0929571092	-0.1395136212	 1.2758499513	-0.045505
N	 0.6921980617	-0.4056321533	 1.2529018082	-0.313636
H	 0.772806101	 2.0904664693	 0.0636016914	 0.120397
H	-0.758525616	 1.9253224383	-0.8025663477	 0.117706
H	-0.7365737712	 1.8936708315	 0.9744579475	 0.12448
H	-1.0127335532	-0.3991353771	 0.1074399914	 0.081639
H	-0.1020668042	-0.4289497101	-2.062609525	 0.106378
H	 1.4061456378	 0.3219697435	-1.5826692745	 0.107944
H	 0.6588620861	-2.4917140986	-0.6175578061	 0.113232
H	 1.4629157235	-2.2369359158	-2.1488630851	 0.127022
H	 4.0653471134	-0.6487143646	 0.735643215	 0.108237
H	 2.4062422285	 0.6545073338	 1.9522439973	 0.115338
H	 0.5611155124	-1.4096903569	 1.3064069373	 0.233233
