22
gdb 122565	4.43591	0.70261	0.66021	2.719	82.36	-0.2278	0.0804	0.3082	1744.7445	0.194208	-404.294282	-404.284798	-404.283854	-404.329539	35.004	
O	-0.058246694	 1.544188381	-0.1285118324	-0.420488
C	 0.0668392862	 0.1314071136	-0.06825101	-0.075762
C	-1.3330011684	-0.4636441604	-0.0023185801	-0.160186
C	-1.3260630738	-1.9951592334	 0.0508920344	-0.21589
C	-2.726288611	-2.582929766	 0.1413873994	 0.072084
C	-2.9311450375	-4.108655364	 0.3662985823	-0.293695
C	-3.7440225407	-3.7196748134	 1.5986622045	-0.005701
C	-2.9376590583	-2.9058708778	 2.5241448239	-0.240987
N	-3.5536869567	-2.2300250758	 1.3646731215	-0.140318
H	 0.8246827989	 1.9231036964	-0.1643820306	 0.284253
H	 0.5968845604	-0.2594406164	-0.953287877	 0.079855
H	 0.6454701563	-0.1798997061	 0.8176743105	 0.081153
H	-1.8481807788	-0.0634054493	 0.8775774297	 0.1262
H	-1.8986427591	-0.1202076184	-0.8770646611	 0.105188
H	-0.8466877545	-2.4023006192	-0.8505547671	 0.096991
H	-0.7127006704	-2.3361593672	 0.8948853126	 0.092898
H	-3.3070168134	-2.2437050185	-0.7222032803	 0.084574
H	-3.5145493845	-4.5826728327	-0.4248647855	 0.108991
H	-2.0397006832	-4.7156743692	 0.5563727579	 0.098496
H	-4.7117863035	-4.1289534898	 1.8702811069	 0.093296
H	-3.39152881	-2.6023798733	 3.4625269211	 0.120105
H	-1.8604014241	-3.0453392202	 2.5726455596	 0.108944
