15
gdb 132973	3.24634	1.42852	0.99824	5.8623	74.02	-0.214	-0.0188	0.1952	1112.2499	0.113644	-458.132002	-458.124014	-458.12307	-458.166301	28.669	
C	-0.0080102086	 1.4885115388	 0.0214434901	-0.350494
N	-0.0087427239	 0.0295024881	-0.0005045931	-0.153534
C	-1.1747810695	-0.7176511411	-0.1513059724	 0.00264
C	-1.1406816911	-2.057736373	-0.154806517	-0.155808
C	 0.1275876027	-2.769152252	 0.0016918498	 0.332968
N	 0.1725288599	-4.0475105257	-0.0019051643	-0.541097
N	 1.2763877947	-1.9544448585	 0.1542961923	-0.409128
C	 1.1393092711	-0.6959735881	 0.1446063739	 0.410114
F	 2.2048784072	 0.0850174777	 0.2884980222	-0.070962
H	 0.6435369819	 1.8909769993	-0.7579818451	 0.158
H	-1.0268520544	 1.8328639229	-0.1588743719	 0.145176
H	 0.3273822875	 1.8696771313	 0.990038097	 0.156276
H	-2.0806363327	-0.1360681278	-0.2630318071	 0.13644
H	-2.0458535078	-2.637285044	-0.2737799929	 0.124105
H	 1.142198813	-4.345565418	 0.1193641587	 0.215305
