13
gdb 61111	2.50672	1.25847	1.0332	6.0749	68.83	-0.3144	-0.0319	0.2825	1145.3022	0.085971	-415.577899	-415.568582	-415.567638	-415.612201	32.683	
O	 0.0891267377	 1.421409387	-0.0837127006	-0.407822
C	 0.0338794191	 0.0116211708	-0.0018133594	 0.002834
C	 0.7111422624	-0.51213754	-1.299729374	-0.343195
C	 0.0572542169	-0.0327089967	-2.5137622663	 0.280964
N	-0.4437382608	 0.3288923294	-3.4889429775	-0.291289
C	 0.7567939119	-0.5052515977	 1.1686702673	 0.308252
C	 1.3640962057	-0.9045690364	 2.1239022724	-0.406699
C	-1.3773630609	-0.4529281965	 0.0653647554	 0.281816
N	-2.4779941379	-0.7947754699	 0.1375731311	-0.317757
H	-0.2850279307	 1.7935645839	 0.7240447175	 0.30798
H	 1.7478223739	-0.1645891861	-1.280524614	 0.181504
H	 0.7168432836	-1.6050567266	-1.2881842552	 0.180062
H	 1.8935965393	-1.2593859511	 2.9749786431	 0.223349
