19
gdb 73501	2.96179	1.80075	1.46209	1.7941	73.7	-0.2337	0.0826	0.3163	957.089	0.161126	-423.022944	-423.015675	-423.014731	-423.054309	29.281	
C	 0.0383181204	 1.4621300834	 0.019924273	-0.479729
C	 0.0001648099	-0.0398766435	 0.0005922519	 0.444885
O	 0.9830862625	-0.6185570321	-0.839638013	-0.302398
C	 0.361726468	-1.6621967869	-1.5966097391	-0.099467
C	-0.7842265212	-2.1682945206	-0.7113553954	 0.064222
O	-0.2940622811	-3.0313370544	 0.3098246049	-0.267016
C	 0.2294501166	-2.2343732479	 1.3762902821	-0.099279
C	-0.3824944507	-0.8489326613	 1.2277372087	-0.142904
C	-1.2451016219	-0.8766255268	-0.0180360698	-0.172734
H	 1.015124412	 1.8172736802	 0.3637707478	 0.131387
H	-0.1353670111	 1.8676470065	-0.9820346763	 0.123986
H	-0.7259773233	 1.8610940207	 0.6930927302	 0.117453
H	-0.0251994298	-1.2672539236	-2.5491308083	 0.088583
H	 1.1063431624	-2.435659489	-1.7995965813	 0.116464
H	-1.5589076387	-2.7026578144	-1.2653847945	 0.085327
H	-0.0588099052	-2.7020286224	 2.3238880976	 0.103172
H	 1.3254972032	-2.2001667185	 1.3205454642	 0.10736
H	-0.7077161073	-0.3191999475	 2.116286975	 0.089548
H	-2.2582431648	-0.5013398119	-0.0826200479	 0.091139
