17
gdb 67267	2.7133	2.18094	1.73787	0.7823	69.6	-0.2274	0.0717	0.2992	837.2196	0.138012	-421.761615	-421.755412	-421.754467	-421.791743	26.665	
O	-0.0362423101	 1.3814157122	-0.0547170218	-0.492312
C	 0.0037761836	 0.0012083635	-0.0715887736	 0.423644
C	 0.4447095703	-0.846210816	 1.204936771	-0.138547
C	-1.0530426707	-1.0085212941	 1.5740964491	-0.256257
C	-1.2880953674	-0.8642534557	 0.0582712705	-0.105749
C	-0.4053411891	-1.9434531541	-0.6390757402	-0.089719
C	 0.8128389993	-2.0695361848	 0.35027363	 0.091937
O	 1.7452093507	-1.5821833557	-0.6569786771	-0.304682
C	 0.6007466902	-0.9065154161	-1.2074871788	-0.00673
H	 0.8602086046	 1.7103485836	 0.0793972651	 0.285967
H	 1.1911313755	-0.4859168717	 1.9130892552	 0.06779
H	-1.3611828464	-1.9351985353	 2.0697465006	 0.09193
H	-1.4349749375	-0.1483270759	 2.1296485909	 0.112917
H	-2.2434468091	-0.5993812911	-0.3908951259	 0.075323
H	-0.7829403507	-2.8099569633	-1.1752190237	 0.079677
H	 1.1329271886	-2.9942960826	 0.8296595753	 0.08172
H	 0.7049621985	-0.5536602429	-2.2331294265	 0.08309
