16
gdb 9931	3.18078	1.56592	1.42074	6.0689	66.44	-0.2488	0.0224	0.2712	947.918	0.129891	-379.912291	-379.903785	-379.90284	-379.944891	31.234	
C	-0.0252587044	 1.5330938215	 0.1036518162	-0.419339
C	 0.0249706657	 0.0283292029	-0.0290605409	-0.077933
C	 0.6854038822	-0.6727020736	-1.1928977722	-0.113324
N	 1.437859063	 0.1015475781	-2.1444184619	-0.52155
C	 1.3436523907	-0.7099730708	 0.1975143442	 0.259996
O	 2.5067794325	 0.0317087256	 0.3363274653	-0.457653
C	 1.3324958213	-1.9462378987	 0.9386315506	 0.267384
N	 1.285736894	-2.9443075512	 1.5219000208	-0.349681
H	 0.9482800396	 1.9834935184	-0.0958189824	 0.135777
H	-0.7610198999	 1.9660595759	-0.5830374799	 0.117376
H	-0.3166304084	 1.8114410791	 1.1205761759	 0.13771
H	-0.8516927061	-0.4937397065	 0.3432035973	 0.11233
H	 0.2165133544	-1.5897925224	-1.5405062664	 0.110061
H	 1.8288510026	-0.4876897305	-2.8698686767	 0.253046
H	 0.8748358918	 0.818454596	-2.5882137053	 0.251926
H	 2.7128172109	 0.3299986063	-0.5698312547	 0.293874
