19
gdb 107517	2.00347	1.68151	1.0976	1.9718	81.42	-0.2444	0.0452	0.2896	1170.4636	0.15699	-385.8255	-385.816384	-385.81544	-385.859499	34.265	
C	-0.2644700939	 1.5192701114	-0.1685883702	-0.379868
C	 0.1226385072	 0.0537533475	 0.07862927	-0.304511
C	 0.842102313	-0.5535516514	-1.085004713	 0.432882
O	 0.0981999815	-0.8504344153	-2.2701485456	-0.284812
C	 0.8713373967	-1.9029397012	-1.675880205	-0.056988
C	 2.3066627575	-1.7387255121	-2.1820982048	-0.261733
C	 2.3140734905	-0.2965386898	-1.5333996885	-0.259805
C	 2.582360646	 0.8504549502	-2.3764269697	 0.344076
C	 2.8095057399	 1.8014326335	-3.0767579327	-0.461742
H	 0.6182951512	 2.1345960454	-0.3656617634	 0.131791
H	-0.9263140814	 1.5991206212	-1.0354906238	 0.137007
H	-0.7833115463	 1.9348001443	 0.700060642	 0.111531
H	 0.7610747054	-0.0225682819	 0.9677574448	 0.101944
H	-0.7745772418	-0.5435444446	 0.2767107911	 0.111633
H	 0.342426863	-2.8072007646	-1.3966435471	 0.105556
H	 3.0299878183	-2.4067624804	-1.7100887982	 0.109707
H	 2.4178875777	-1.7706723045	-3.2670348669	 0.123385
H	 2.9739104027	-0.2885967579	-0.6592084248	 0.104832
H	 3.0013280627	 2.6398872204	-3.699225644	 0.195118
