19
gdb 87920	4.07339	1.04173	0.94462	4.6237	75.62	-0.2595	0.0167	0.2762	1281.0389	0.159544	-423.065065	-423.056647	-423.055703	-423.098314	31.854	
C	-0.0089909647	 1.5225865541	-0.155343002	-0.412629
C	 0.0527618314	 0.0146587495	-0.0287949919	-0.055955
C	 1.375291951	-0.7167638369	-0.0883233119	-0.337162
C	 0.5961031885	-0.6548934537	 1.203859727	 0.317092
C	 1.128441777	 0.1237198584	 2.4019898267	-0.144436
O	 1.3801146753	-0.8587623364	 3.4205520764	-0.219723
C	 0.7446601385	-2.0329947183	 3.1477059533	 0.435962
O	 0.8001794669	-2.9742305337	 3.8826832133	-0.334534
C	-0.0032151368	-1.901505432	 1.8236417136	-0.454156
H	 0.860158094	 2.0031463907	 0.3051421959	 0.117944
H	-0.0286004004	 1.8228331935	-1.2082114898	 0.125975
H	-0.9066884448	 1.9300305718	 0.3225541616	 0.122833
H	-0.7834229708	-0.5021972136	-0.4948789921	 0.090107
H	 1.4242832806	-1.6651439848	-0.6136523495	 0.117593
H	 2.2786703167	-0.1182035744	-0.1634766413	 0.11481
H	 2.0659824625	 0.6493603693	 2.2069304277	 0.123548
H	 0.3975466559	 0.8440429619	 2.791758924	 0.114981
H	-1.0712780945	-1.7875598227	 2.0503982475	 0.137174
H	 0.1129396636	-2.8119926127	 1.2333117016	 0.140576
