15
gdb 127467	3.56118	1.14844	0.87876	2.1925	64.48	-0.2432	-0.0028	0.2404	1250.3812	0.112089	-491.117124	-491.108328	-491.107383	-491.151268	30.23	
C	 0.1075313121	 1.3827170509	-0.1344904934	-0.331567
N	 0.022969137	-0.0566455866	-0.0748588809	-0.080684
N	 0.1078585048	-0.8421770383	-1.2103218363	-0.320795
C	 0.0177036338	-2.0420949163	-0.7594205581	 0.394204
C	-0.0003483009	-3.2854585065	-1.5887930931	-0.155106
O	 0.2577499836	-3.0187273942	-2.9416699608	-0.402571
O	-0.1201001638	-2.1283465665	 0.5845520815	-0.231453
C	-0.1133942872	-0.8049724417	 1.0599071076	 0.477783
O	-0.2096486649	-0.4919904312	 2.2118439944	-0.395941
H	 1.0642904382	 1.6950484612	-0.5625299698	 0.150011
H	-0.7074799979	 1.7923894021	-0.7379514167	 0.147468
H	 0.0258931198	 1.7505036543	 0.8893084607	 0.17379
H	 0.7714153784	-3.9749936719	-1.2261264676	 0.146474
H	-0.9697877964	-3.7892024631	-1.4317168481	 0.125396
H	-0.1497427468	-2.1722777522	-3.1602853293	 0.302993
