19
gdb 117738	2.32767	1.07637	0.94573	3.2527	78.87	-0.2459	-0.0228	0.2231	1361.7442	0.154067	-422.985863	-422.974958	-422.974014	-423.022496	37.777	
C	 0.1179186552	 1.449222817	 0.1443558923	-0.231934
O	 0.1024270257	 0.0393772901	 0.1174517242	-0.24428
C	 0.6362022695	-0.4932045921	-1.0724198243	-0.082041
C	 0.5640787519	-2.0410417982	-1.0084281174	-0.105303
C	 1.3143397697	-2.5573686614	 0.2458531284	-0.421217
C	-0.9121662787	-2.4545699056	-0.8622672119	 0.161626
O	-1.4987923047	-3.2060083844	-1.5916772276	-0.246345
C	 1.1514835762	-2.583005467	-2.228930686	 0.331965
C	 1.6644442517	-3.0021838801	-3.2307853666	-0.443135
H	 1.1422963854	 1.8439125043	 0.0629181035	 0.111038
H	-0.4829847458	 1.8775340537	-0.67222437	 0.112858
H	-0.3080993502	 1.7609277649	 1.1005038189	 0.133538
H	 0.0774616357	-0.1325200543	-1.950656673	 0.109149
H	 1.6883002469	-0.1925512841	-1.2025520862	 0.105317
H	 0.8694233468	-2.1385446746	 1.1508093545	 0.140174
H	 1.2764475341	-3.6483302155	 0.2923089653	 0.136635
H	 2.3628835451	-2.2505996086	 0.2009243396	 0.131608
H	-1.400860268	-1.9869071155	 0.0171047415	 0.102806
H	 2.1012341438	-3.3876580285	-4.1188033351	 0.197542
