19
gdb 117406	4.89717	0.60833	0.54843	2.1803	79.28	-0.2865	-0.0009	0.2856	1979.0686	0.157317	-419.225246	-419.214954	-419.21401	-419.262209	35.305	
C	 0.0981374952	 1.5910028916	 0.22192543	-0.386096
C	 0.0128600191	 0.0737133191	 0.0403541896	-0.157624
C	 0.7068605206	-0.6831931298	 1.1731094819	-0.267287
C	 0.6532683107	-2.1831013998	 1.0436588438	 0.429706
N	 0.0853982363	-2.7774671264	 0.0828312272	-0.519451
O	 1.3064978703	-2.7459271295	 2.1150850162	-0.236567
C	 1.3597911867	-4.1593185706	 2.1680446966	-0.236071
C	 2.0886990713	-4.547093347	 3.3760531587	 0.277824
N	 2.6583398293	-4.8912822008	 4.3189367426	-0.282857
H	 1.1387281829	 1.9340371818	 0.2458878477	 0.114441
H	-0.4039871649	 2.1127954473	-0.5981030301	 0.116442
H	-0.3750506468	 1.9100535564	 1.1575416715	 0.114442
H	-1.0335069729	-0.2435259775	-0.0139871446	 0.114621
H	 0.4615222267	-0.2198613577	-0.9140970207	 0.11467
H	 1.7636393731	-0.3943122964	 1.2461852522	 0.128026
H	 0.2702382354	-0.4184550334	 2.1451268619	 0.128016
H	 0.1290677493	-3.7931722811	 0.1275814447	 0.224398
H	 0.3517894134	-4.5952447739	 2.2028007474	 0.161675
H	 1.8762672841	-4.5719764925	 1.2903836635	 0.161692
