15
gdb 24634	4.51517	1.31948	1.10431	3.6501	73.22	-0.2259	0.0227	0.2485	1052.32	0.114793	-416.776311	-416.769555	-416.76861	-416.807721	25.847	
C	 0.1352584609	 1.5463280748	-0.0322769531	-0.25362
O	 1.2642608876	 0.6543021206	-0.0504900648	-0.252775
C	-0.0254534738	 0.0936247288	 0.0096107581	 0.247339
C	-0.5130039651	-0.8335359029	 1.1694250697	-0.2529
N	-1.0546345292	-1.6932090346	 0.0886031562	-0.026921
C	-1.7466837593	-2.7356769937	-0.4335420045	-0.021083
N	-1.7535954911	-2.6446394641	-1.7551761209	-0.261849
C	-1.0605910628	-1.5043080933	-2.0988539235	-0.232242
C	-0.6202816021	-0.9032342938	-0.9441204321	 0.258299
H	 0.0184355997	 2.1322333706	 0.878314874	 0.123711
H	-0.052460783	 2.0798379646	-0.9621987953	 0.130887
H	 0.2899663372	-1.3010830333	 1.743432149	 0.147741
H	-1.277449723	-0.4235632171	 1.8334856911	 0.139215
H	-2.2086622987	-3.5166812628	 0.1491125516	 0.137547
H	-0.9288141675	-1.2172838439	-3.1295169955	 0.116651
