20
gdb 105992	2.65508	1.56194	1.18386	2.2251	82.12	-0.203	0.0699	0.2729	1128.9608	0.169612	-365.900046	-365.891488	-365.890544	-365.933203	32.766	
C	 0.0753287128	 1.468548417	-0.2442827376	-0.372093
C	-0.0463505045	-0.0118138889	 0.1462821599	-0.332066
C	-1.4549124822	-0.5126272348	 0.1318302939	 0.310503
C	-2.7348549422	-0.1072190441	 0.918661484	-0.123205
C	-3.2656354734	-1.4908880656	 0.8209296266	-0.116295
N	-3.627148924	-0.4798595381	-0.2351854199	-0.177419
C	-2.3774440205	-0.9070658713	-1.0028865665	-0.125493
C	-2.008463232	-1.9489609168	 0.0296229512	 0.259084
C	-1.2949779745	-3.2550618491	-0.08032621	-0.528544
H	 1.1183905934	 1.7981089269	-0.2152508202	 0.111644
H	-0.3093708191	 1.6400348094	-1.2544253257	 0.122201
H	-0.495510549	 2.1046629081	 0.4400806147	 0.120525
H	 0.5524334745	-0.6236449284	-0.5410763481	 0.101724
H	 0.3887499653	-0.1652093117	 1.143521978	 0.102192
H	-2.9723042461	 0.7090025633	 1.5920371485	 0.090622
H	-4.0167443549	-2.0190197764	 1.3980535432	 0.090949
H	-2.2733648746	-0.8750217861	-2.0815126982	 0.0918
H	-0.4385400005	-3.1743707694	-0.758504074	 0.124172
H	-0.9164579729	-3.5921131799	 0.891968149	 0.123036
H	-1.9532846956	-4.0388890041	-0.4733836887	 0.126666
