21
gdb 89383	2.63639	1.42037	1.16592	2.2268	77.47	-0.2309	0.0661	0.2971	1149.2291	0.181783	-424.223573	-424.214476	-424.213532	-424.256561	36.133	
C	 0.7448064395	 1.463746601	 0.059030509	-0.397851
C	-0.0296366259	 0.140212526	 0.0145557983	 0.019694
C	 0.3057139194	-0.7369084451	-1.2340778238	-0.297887
C	 1.153399352	-1.888779104	-0.7238296225	 0.314806
O	 1.0559954627	-3.1340796001	-1.3597027759	-0.478731
C	 2.407406218	-1.5768622878	 0.0698673426	-0.423755
C	 1.1025884564	-1.910807768	 0.777027173	 0.415387
O	 1.0008073745	-3.121249501	 1.4566052835	-0.48782
C	 0.2236108954	-0.7729931465	 1.257061803	-0.287054
H	 1.8287413294	 1.3138897426	 0.094398856	 0.119136
H	 0.5262319595	 2.0733119341	-0.8243032044	 0.112232
H	 0.4666463647	 2.0461799337	 0.9437587222	 0.114947
H	-1.0927118585	 0.3976664284	-0.0170777519	 0.080327
H	-0.6050245799	-1.164901201	-1.6663285838	 0.106607
H	 0.7946630703	-0.1506343204	-2.0215000448	 0.088973
H	 1.75791361	-3.2057025594	-2.0143747917	 0.288474
H	 3.1462777549	-2.3710180988	 0.108070841	 0.109102
H	 2.815503401	-0.5720519319	 0.0744461271	 0.111078
H	 0.937220978	-3.8059769729	 0.7762430835	 0.286782
H	 0.6612481639	-0.2125302946	 2.090329583	 0.099012
H	-0.7120326854	-1.2120106943	 1.6182306967	 0.106539
