17
gdb 92835	2.60347	1.72256	1.29689	3.8662	68.14	-0.2476	0.0053	0.253	990.409	0.136893	-455.098715	-455.090524	-455.08958	-455.131105	31.198	
N	-0.0186455272	 1.4712561483	-0.137576464	-0.56173
C	-0.0283541758	 0.0147137114	-0.1313946587	 0.131791
C	 1.1983398526	-0.5781750717	-0.8966280249	-0.129353
O	 1.852370528	-0.9062477982	 0.4053917673	-0.27205
C	 0.6609325188	-0.6521244538	 1.0124242201	 0.412606
N	 0.0249164609	-1.139539449	 1.990581018	-0.30762
C	-1.3894539957	-0.7934828195	 1.651415251	-0.208895
C	-1.4128019099	-0.6437779037	 0.077209534	 0.033384
O	-2.4453849052	 0.1564654673	-0.4513228259	-0.437268
H	-0.747162895	 1.7898716636	-0.7724150704	 0.246456
H	-0.284542048	 1.8243206762	 0.7775170963	 0.239714
H	 1.0333214573	-1.5021779471	-1.4556314288	 0.123078
H	 1.7865318809	 0.1515458385	-1.4503033429	 0.135991
H	-2.0424760546	-1.5983584891	 2.0009198786	 0.110051
H	-1.7219923471	 0.1368140889	 2.1295373445	 0.108995
H	-1.4230366484	-1.6537340471	-0.359384402	 0.081089
H	-3.2810292317	-0.3085458952	-0.3482941021	 0.293761
