17
gdb 54467	3.47489	1.39029	1.18224	2.486	71.87	-0.2343	0.0122	0.2464	1058.2299	0.136553	-417.952316	-417.944603	-417.943658	-417.984572	30.536	
N	-0.0510810295	 1.1080559503	-0.6709063634	-0.537513
C	 0.0036850445	 0.0018400135	 0.1291214168	 0.304264
O	 0.9554390988	-0.3048162796	 0.8214985206	-0.364743
C	-1.2262262472	-0.8509910982	 0.0631631313	 0.230294
C	-1.8329972884	-1.3220659281	-1.2072739577	-0.270949
N	-2.5454974424	-0.2989271035	-0.4247884392	-0.200175
C	-3.1783844929	-0.9150612977	 0.8162414522	 0.003754
C	-2.9845786813	-2.3860757821	 1.050352815	-0.312251
C	-1.85706524	-1.4347528563	 1.3386919855	-0.117833
H	 0.6960112606	 1.7778065727	-0.5792725012	 0.260333
H	-0.9624125049	 1.4396390869	-0.9505233116	 0.272108
H	-1.4147225479	-0.9152627098	-2.1228991657	 0.133057
H	-2.2254104414	-2.3268721109	-1.3071159844	 0.129684
H	-3.9536869169	-0.3316857345	 1.2949174386	 0.109389
H	-3.4936792166	-2.7308201537	 1.9457747359	 0.125486
H	-2.9542869878	-3.1354619054	 0.2676462517	 0.118989
H	-1.3932241267	-1.3205900635	 2.3076583755	 0.116104
