21
gdb 101190	3.06389	1.02506	0.93167	1.9457	78.19	-0.2331	0.0737	0.3067	1349.42	0.181436	-424.171946	-424.162512	-424.161568	-424.206789	34.884	
C	-0.008723426	 1.6975621727	 0.3153145503	-0.393235
C	-0.0342611721	 0.1973464983	-0.0045829816	 0.002668
C	 0.7570426964	-0.6119364409	 1.0257443032	-0.076185
O	 2.1025616329	-0.156609527	 1.0145901342	-0.424536
C	-1.4534091671	-0.3325025963	-0.0884442672	-0.032816
C	-2.4006346424	-0.1187267649	-1.2590676809	-0.165101
C	-1.6598003638	-0.3115672667	-2.578442888	-0.094465
O	-1.1144860477	-1.5845903881	-2.1371647813	-0.282961
C	-1.8753910735	-1.5005801025	-0.9271735067	 0.070031
H	 1.0199319515	 2.0575717921	 0.3856096462	 0.133249
H	-0.5296457151	 2.2719793336	-0.4570116636	 0.108002
H	-0.503908838	 1.902129168	 1.2727503113	 0.102895
H	 0.458683467	 0.0297066852	-0.9681664787	 0.099725
H	 0.3038455731	-0.4828461857	 2.0241398846	 0.075194
H	 0.6973709898	-1.6808674822	 0.7701855652	 0.092219
H	 2.6005183747	-0.672460813	 1.6547930758	 0.285789
H	-1.9991942739	-0.2953012692	 0.8552633987	 0.084548
H	-3.3900097101	 0.3044849933	-1.1498437668	 0.096543
H	-2.3316455196	-0.4626856141	-3.4307290018	 0.109606
H	-0.878553693	 0.4085652083	-2.8480331268	 0.108946
H	-2.3532480332	-2.4070827109	-0.5720338864	 0.099884
