23
gdb 41849	2.20228	1.9239	1.53915	0.1868	88.81	-0.234	0.0316	0.2656	1024.0948	0.211054	-351.19703	-351.189728	-351.188784	-351.228183	31.326	
C	 0.0058633705	 1.5445374881	-0.1459996751	-0.184944
C	 1.4486072438	 2.0698809073	-0.0404389648	-0.198429
C	 2.2110515927	 1.5394837447	 1.1936093024	 0.010527
C	 1.660841531	 2.0657581423	 2.5403252208	-0.255298
C	 0.5166636557	 1.2534756252	 3.0930003949	-0.045104
C	 0.083711969	 0.1208035312	 2.5394954448	-0.062462
C	 0.6997552301	-0.4506883763	 1.2831568172	-0.031831
C	-0.0663439429	 0.0186135809	 0.0192784597	-0.195608
C	 2.1682405897	 0.0014351821	 1.1862759867	-0.221325
H	-0.6132268926	 2.017054491	 0.6243490651	 0.103767
H	-0.4242840479	 1.8366920129	-1.1108124718	 0.086249
H	 2.0063912078	 1.7621683219	-0.93590999	 0.086546
H	 1.4479952543	 3.1667260128	-0.0396125742	 0.084808
H	 3.2512081418	 1.8746555298	 1.1052534748	 0.059403
H	 2.4698893579	 2.0841250519	 3.2857079025	 0.102665
H	 1.349982229	 3.1146434527	 2.4337771766	 0.099383
H	 0.0472015516	 1.6303378676	 3.9995044143	 0.078345
H	-0.7577894191	-0.4123226066	 2.9763023103	 0.077692
H	 0.6527997445	-1.5454022919	 1.327735217	 0.060749
H	-1.1125191656	-0.3056278659	 0.0662255016	 0.087022
H	 0.37680773	-0.4734525077	-0.8572630964	 0.087223
H	 2.623557532	-0.384048238	 0.2656648103	 0.082577
H	 2.7412576868	-0.403322616	 2.0282505736	 0.088044
