17
gdb 98883	4.18253	1.00466	0.82251	2.2516	72.76	-0.2396	-0.0183	0.2213	1342.1888	0.136432	-455.172009	-455.163094	-455.16215	-455.206556	30.985	
O	-0.0125793939	 1.4183035838	 0.0102500854	-0.390713
C	-0.0039855034	 0.0164128074	 0.003033452	-0.19746
C	-1.4575108406	-0.468305197	 0.0114743869	 0.404966
O	-2.4089133615	 0.2786405863	 0.022478567	-0.330499
N	-1.624381673	-1.8387910954	 0.0056415049	-0.129684
C	-2.956085278	-2.466060273	 0.0129477816	-0.185411
C	-2.5837297576	-3.9753383975	 0.003225107	-0.178666
N	-1.1091621151	-4.0544843622	-0.0081011324	-0.258893
C	-0.6750661082	-2.8598437962	-0.0059888118	 0.083541
H	 0.9010467148	 1.71847506	 0.0028904961	 0.294062
H	 0.4959304166	-0.3965469455	-0.889358458	 0.112791
H	 0.5092262137	-0.4055407825	 0.8836153743	 0.112779
H	-3.5117245205	-2.1556003427	 0.9011862582	 0.13634
H	-3.5252225001	-2.1476029453	-0.8638376316	 0.136324
H	-2.9648493393	-4.5023233254	 0.8834631516	 0.125686
H	-2.9778949509	-4.4941695846	-0.8761130674	 0.125683
H	 0.379912847	-2.6103324703	-0.012783774	 0.139154
