21
gdb 81772	2.10698	1.7144	1.30924	2.1487	77.61	-0.2427	0.0781	0.3208	1097.8979	0.179723	-424.203206	-424.193551	-424.192607	-424.236731	37.203	
C	-0.1938090475	 1.481399838	 0.1325830313	-0.513434
C	 0.1435580018	 0.0290360201	 0.0270562823	 0.41927
O	-0.6794095596	-0.9017383759	 0.7632839167	-0.315608
C	 0.7450726113	-0.9090287721	 0.9910970975	-0.113136
C	 1.309679811	-1.7935017283	-0.1255027348	 0.09134
O	 0.8575455937	-3.1188034625	-0.1523187281	-0.433516
C	 0.7132106491	-0.7546064467	-1.1831937368	 0.196877
C	-0.3140611919	-1.3136921514	-2.1604999671	-0.450299
C	 1.8305893735	 0.0052877581	-1.8973154839	-0.455369
H	 0.6412237788	 2.1019958679	-0.2062681198	 0.129208
H	-1.0653509443	 1.7242892155	-0.4855423929	 0.132529
H	-0.428225728	 1.7440161431	 1.1675206888	 0.135322
H	 1.0775759919	-0.7707308489	 2.0146963127	 0.100642
H	 2.4018330447	-1.8234705636	-0.1624024202	 0.083643
H	-0.0806651627	-3.0843614539	 0.0742966732	 0.29081
H	-1.1629317418	-1.7556576314	-1.6333893333	 0.119622
H	-0.6986185256	-0.5259448745	-2.8182567632	 0.108702
H	 0.1349426552	-2.0885925559	-2.7898954018	 0.123993
H	 2.3581960212	-0.654987348	-2.5939783086	 0.122871
H	 1.4354422213	 0.8496730845	-2.4732642159	 0.114908
H	 2.568309328	 0.4002259759	-1.1892295762	 0.111624
