20
gdb 119198	1.93361	1.20883	0.84424	4.1169	80.85	-0.2927	0.0081	0.3008	1449.081	0.168395	-403.154344	-403.144088	-403.143144	-403.190081	36.415	
C	-0.2087357356	 1.578849347	-0.0471731077	-0.386408
C	-0.2512710824	 0.0628210056	-0.2501801938	-0.172542
C	 1.0051265032	-0.4690568094	-0.9557473765	-0.275483
C	 0.9607201349	-1.9703509449	-1.171475111	 0.221183
O	 0.0394272847	-2.4656943466	-2.1540814736	-0.274035
C	 1.4340515347	-2.6680663055	-2.395235535	 0.03765
C	 2.0573211993	-1.9867092716	-3.5840970592	-0.431489
C	 0.9786105391	-2.7502418247	 0.061595848	 0.269138
N	 1.0150953433	-3.3472896496	 1.0507932992	-0.340137
H	 0.6488439975	 1.8740937754	 0.5674728981	 0.118439
H	-0.1285931299	 2.1069739417	-1.0039200778	 0.115757
H	-1.1143116937	 1.9337355629	 0.453327256	 0.120708
H	-0.3624696541	-0.4380838295	 0.7187751513	 0.123203
H	-1.129642878	-0.2121437285	-0.8452984345	 0.118505
H	 1.1181255202	 0.0238322921	-1.9249098101	 0.11149
H	 1.8986299181	-0.2294884136	-0.3655287342	 0.117609
H	 1.7469714106	-3.7038378118	-2.2527745645	 0.111904
H	 1.7013154509	-0.9631578121	-3.7079560471	 0.136446
H	 3.1475715197	-1.975377724	-3.4849458591	 0.135977
H	 1.8096826574	-2.5431960429	-4.4937192785	 0.142087
