13
gdb 42632	2.74024	1.78931	1.31813	5.5302	67.63	-0.2755	-0.044	0.2315	925.6608	0.089937	-415.570525	-415.563729	-415.562784	-415.601865	25.706	
O	-0.0181487457	 0.0514987353	 0.0644949366	-0.301104
C	-0.0291163505	 1.2410385486	 0.1061278447	 0.461516
C	-1.0579922295	 2.3165913928	 0.041830437	-0.190473
C	-0.4492681356	 3.5252513814	 0.691077462	-0.026799
C	 0.9265613034	 3.188142177	 1.2453483397	-0.286643
C	 1.05755711	 2.3418569272	-0.0460124823	 0.064817
C	 2.3090498389	 2.0993800029	-0.7008645278	 0.193412
N	 3.3234912565	 1.8927427769	-1.2152404928	-0.319826
N	-0.0772834309	 3.2199010823	-0.7146675407	-0.153574
H	-2.1024785822	 2.2491221196	-0.23048325	 0.142048
H	-1.0701143489	 4.3814031653	 0.9271683305	 0.131289
H	 1.581158108	 4.0611913001	 1.2124529305	 0.148736
H	 1.0265207065	 2.6700779706	 2.2020218226	 0.136601
