23
gdb 89738	2.21781	1.48792	1.24235	1.5954	85.62	-0.2219	0.0799	0.3017	1187.6331	0.203039	-388.273124	-388.263139	-388.262194	-388.307762	38.379	
C	-0.5749800193	 1.3594445732	-0.0671955593	-0.413677
C	 0.1675273292	 0.0394309396	-0.0453360144	 0.13642
O	 1.4550356077	 0.1202790685	-0.7099487668	-0.334588
C	 2.0998766782	-0.5192590019	 0.3884594441	 0.461443
C	 3.1087075295	-1.6009209172	 0.171322072	-0.342401
C	 3.5273959013	-0.2390864677	 0.7151595746	-0.340995
C	 0.8346254995	-0.5044406025	 1.2619753095	 0.140494
C	 0.9046694168	 0.4762713999	 2.4320645248	-0.443701
C	 0.3195908067	-1.8681690116	 1.7140415047	-0.452229
H	 0.0086849258	 2.1611776825	 0.3913880491	 0.121898
H	-0.7852995771	 1.6442883539	-1.1031327729	 0.126844
H	-1.5319707332	 1.2738641114	 0.4591967575	 0.114124
H	-0.4501856092	-0.7350932161	-0.523570598	 0.067955
H	 3.1226689649	-2.452188418	 0.8447074912	 0.110196
H	 3.3694178332	-1.8296337502	-0.8565865656	 0.120638
H	 4.0625712872	 0.4249660609	 0.0444725407	 0.121197
H	 3.8243299643	-0.1664619881	 1.756734221	 0.111007
H	 1.322277588	 1.44043301	 2.1314602662	 0.124502
H	-0.086886225	 0.6507921342	 2.8640900117	 0.112322
H	 1.5429061297	 0.0743935698	 3.2269306351	 0.112402
H	 0.9562325348	-2.2923054122	 2.498867519	 0.11273
H	-0.6936579952	-1.7849082031	 2.1240799836	 0.112788
H	 0.2922381222	-2.5790791854	 0.8829584825	 0.120631
