21
gdb 65315	3.46797	0.97127	0.94577	0.9212	90.5	-0.2331	0.0511	0.2842	1365.3358	0.180729	-349.898518	-349.888994	-349.88805	-349.932796	36.752	
C	 0.0377055169	 1.591783619	-0.1315604049	-0.484799
C	 0.0130893987	 0.0781818726	-0.063708071	 0.335188
C	 1.1064213148	-0.6665258107	-0.7825307905	-0.329757
C	 1.1155867541	-0.6278459085	 0.7407023964	-0.243214
C	 2.1236025489	 0.1006715748	 1.4507174218	 0.316063
C	 2.9683151919	 0.7054271755	 2.0589958301	-0.446229
C	-1.3321883498	-0.5982729996	-0.00595025	-0.027159
C	-2.4735636315	-0.0858244879	 0.8385921634	-0.276639
C	-2.5666889823	-0.0333793779	-0.6669512646	-0.28163
H	 1.0628390077	 1.9631570382	-0.0715061552	 0.132543
H	-0.3969883323	 1.9491028636	-1.0706994439	 0.11877
H	-0.5184169079	 2.0443593709	 0.6959529084	 0.122775
H	 0.8708309624	-1.6154431274	-1.2529167154	 0.113226
H	 1.8694033922	-0.0876374606	-1.2909021144	 0.120596
H	 0.8001022932	-1.5442075009	 1.2323763756	 0.108475
H	 3.7139699041	 1.2368892608	 2.5958685865	 0.190477
H	-1.2530612695	-1.6822145373	-0.0471407225	 0.078011
H	-3.07738784	-0.8121389737	 1.3713348472	 0.111354
H	-2.3440983196	 0.8514002835	 1.3680238247	 0.116561
H	-2.4993073662	 0.9400053895	-1.1392043533	 0.114334
H	-3.235696526	-0.7219607838	-1.1713317985	 0.111052
