21
gdb 122048	2.46149	0.73721	0.59041	2.1646	81.26	-0.2574	-0.0545	0.2029	1891.8155	0.178472	-424.252125	-424.241221	-424.240277	-424.289914	37.114	
C	 0.2507748831	 1.5063679161	-0.1736024084	-0.381695
C	 0.0807998065	-0.0132642409	-0.1007763754	-0.164907
C	-1.3863166078	-0.4527076728	-0.0524930764	-0.177491
C	-1.55744945	-1.9749982682	 0.00755116	-0.209512
C	-3.0186335159	-2.4158955719	 0.0693058353	-0.17413
C	-3.220624569	-3.9070994295	-0.2276401738	 0.135857
O	-2.336938726	-4.6579191469	-0.5404189976	-0.228207
C	-3.6967339984	-2.1294050506	 1.4062306538	 0.142461
O	-4.8870232514	-2.1762955054	 1.5759210583	-0.246438
H	 1.3076252478	 1.7880851684	-0.2054633397	 0.115232
H	-0.230177803	 1.9163910727	-1.0686243022	 0.115594
H	-0.1987267146	 1.9976738447	 0.6965522614	 0.115334
H	 0.5676598601	-0.4809257122	-0.9665008375	 0.100752
H	 0.6025505603	-0.4000450422	 0.7844578678	 0.098146
H	-1.8744592084	 0.0154979285	 0.8144465512	 0.095366
H	-1.9124602655	-0.0645109607	-0.9360216569	 0.09818
H	-1.0859807751	-2.4448647337	-0.8611817371	 0.122893
H	-1.027790951	-2.3774370413	 0.8815240125	 0.107206
H	-3.631889168	-1.9006499587	-0.6860102246	 0.129667
H	-4.2751435194	-4.2403146536	-0.1312303187	 0.112089
H	-2.9969316244	-1.9132034417	 2.2447068078	 0.093602
