15
gdb 10821	5.02452	1.54757	1.22917	3.1972	66.34	-0.2536	-0.037	0.2166	935.6733	0.120019	-399.810565	-399.803355	-399.802411	-399.842026	26.981	
O	 0.0049565799	 1.3942200563	 0.1325433885	-0.425291
C	 0.0373958181	-0.0194023066	-0.0108516734	 0.046584
C	-1.4222277011	-0.4686929243	-0.0123896625	-0.088683
O	-1.5639740221	-1.8492464329	-0.3545990344	-0.264376
C	-0.9348555369	-2.2935807251	-1.4850466564	 0.383862
N	-1.2690054089	-3.38200165	-2.0493626214	-0.52063
C	 0.195047858	-1.4998443743	-1.9850966591	-0.097926
C	 0.6776994716	-0.4607353914	-1.3018039813	-0.117948
H	 0.902113518	 1.7046616597	 0.2886107905	 0.291242
H	 0.5628937503	-0.4824130396	 0.8409542435	 0.093031
H	-1.8728617143	-0.3556494598	 0.974806383	 0.125459
H	-1.971908879	 0.1595699416	-0.7247582901	 0.123566
H	-2.0591489136	-3.8009520629	-1.5536726362	 0.222114
H	 0.6283825736	-1.8499716624	-2.9138538183	 0.125296
H	 1.5444056665	 0.0936238117	-1.6529498626	 0.103699
