17
gdb 75942	2.19701	1.83324	1.07066	3.6339	70.48	-0.2538	-0.0064	0.2474	1100.8051	0.13551	-459.006782	-458.998407	-458.997463	-459.039851	31.423	
C	 0.5625253267	 1.417532071	 0.0975975116	-0.476018
C	 0.0969435805	 0.0065882664	-0.083830769	 0.283765
C	-0.0033274866	-0.6350088108	-1.2469414966	-0.190591
C	-0.4596912106	-2.063622304	-1.2809493199	-0.127234
O	 0.0014543774	-2.8327507823	-0.1445038457	-0.217691
C	 0.1423716293	-2.2249534851	 1.0349532	 0.410988
O	 0.6259694631	-2.7941914597	 1.9825190866	-0.355914
C	-0.3315527252	-0.7731835279	 1.1482043559	-0.085507
O	 0.1356316318	-0.2216664627	 2.3466755309	-0.434669
H	 1.4226513614	 1.4537837455	 0.7726464057	 0.15016
H	 0.8360709692	 1.8679140296	-0.859562903	 0.120179
H	-0.2178091658	 2.0292977864	 0.5653796119	 0.138793
H	 0.2340538706	-0.1592800627	-2.1928098114	 0.103922
H	-1.5559448528	-2.1448925755	-1.3161812517	 0.130943
H	-0.064153917	-2.5943452706	-2.1497117452	 0.139855
H	-1.4394367939	-0.8102685765	 1.1557344852	 0.110193
H	 0.4986394118	-0.9726687111	 2.8442296145	 0.298824
