23
gdb 59707	2.97068	1.21012	0.96676	1.695	84.79	-0.2545	0.082	0.3365	1314.9976	0.206265	-388.297737	-388.288661	-388.287717	-388.331434	35.298	
C	 0.0382489386	 1.5203987934	-0.0361706377	-0.39407
C	 0.0139017018	-0.013450541	 0.0304031704	 0.035403
C	 0.7944676489	-0.5022355944	 1.2597831364	-0.400333
C	-1.4276658246	-0.5597596896	 0.0111380861	 0.015082
C	-2.2552709392	-0.1309656254	-1.2343064572	-0.239842
C	-3.2911470035	-1.2534978863	-1.4790187485	-0.253336
C	-2.6260138915	-2.4873172351	-0.9055097389	 0.049952
O	-1.2571047876	-2.6459199294	-1.3096273453	-0.267874
C	-1.5336154567	-2.077770306	-0.0177154358	 0.033586
H	 1.0678139612	 1.8930962397	-0.0343927932	 0.109284
H	-0.4502925227	 1.9001221085	-0.9378808657	 0.115212
H	-0.4723589309	 1.957901863	 0.8307686441	 0.108119
H	 0.5126697454	-0.4046797462	-0.8670903757	 0.08602
H	 0.8670337014	-1.593153127	 1.2943794334	 0.116484
H	 1.8147592775	-0.104991093	 1.2550347346	 0.110928
H	 0.3158103261	-0.1675172133	 2.1885384124	 0.108048
H	-1.9383124206	-0.2197021748	 0.9259282017	 0.064916
H	-2.7277153743	 0.8449500314	-1.1040553191	 0.099117
H	-1.5878286883	-0.0585330828	-2.0973578475	 0.115793
H	-4.2224794136	-1.0690281818	-0.9287665937	 0.100868
H	-3.5528212119	-1.3611542295	-2.5363951804	 0.107617
H	-3.1790549973	-3.4138785063	-0.7701557177	 0.088688
H	-1.2153459783	-2.6806691139	 0.8288984673	 0.090338
