21
gdb 77002	3.03606	1.02592	0.97132	1.1806	85.05	-0.2492	0.0505	0.2997	1346.2092	0.179354	-387.045542	-387.035188	-387.034244	-387.080411	38.95	
C	 0.1487765695	 1.547390332	-0.1647570648	-0.456828
C	-0.0068199099	 0.0459276545	-0.0177956665	 0.276697
C	-1.1824016003	-0.5351981348	-0.7823598474	-0.451404
C	 1.2385917113	-0.8045782811	 0.0781387934	 0.064057
O	 2.4753388409	-0.1533798283	 0.0668684494	-0.427883
C	 0.3498862334	-0.6470554263	 1.2934162493	-0.098429
C	 0.8810842897	 0.097904165	 2.5146642813	-0.386128
C	 2.0189993453	-0.5932388394	 3.1222768777	 0.297574
C	 2.9653235869	-1.1823117943	 3.5758163095	-0.45673
H	 1.1177910694	 1.8931556381	 0.1972862062	 0.137609
H	 0.0836036019	 1.8256101411	-1.2226388129	 0.115744
H	-0.6448580682	 2.0859851028	 0.3661010737	 0.10882
H	-1.1027024869	-0.3095051519	-1.852164575	 0.117463
H	-1.2374054181	-1.6230984389	-0.6740517409	 0.112131
H	-2.13058421	-0.1178465109	-0.4230369643	 0.114834
H	 1.2316981339	-1.7664355141	-0.4361010411	 0.078257
H	 2.9947470592	-0.503519738	 0.8017092985	 0.29317
H	-0.254823025	-1.5128842341	 1.5497218855	 0.087191
H	 1.1874049555	 1.1137197499	 2.2491486365	 0.141774
H	 0.0811824969	 0.2066652637	 3.2570412296	 0.132862
H	 3.7904281248	-1.695203475	 4.0046391423	 0.199222
