16
gdb 46202	3.26429	1.64079	1.25853	4.3442	68.77	-0.2533	-0.0123	0.241	975.0582	0.125854	-437.820123	-437.81329	-437.812345	-437.851455	26.631	
O	-0.1272430438	 0.0614478931	-0.272593434	-0.329837
C	-0.051470982	 1.2168761746	-0.0013801509	 0.406024
O	-1.0500621698	 2.045927843	 0.4462925827	-0.243287
C	-0.1569021319	 3.2052923266	 0.5105076926	-0.187441
C	 1.0055446084	 2.3243936791	 0.0386422655	 0.184815
C	 2.434601241	 2.2167082633	 0.5987789455	-0.131438
C	 2.7347837808	 1.4995777488	-0.7376030299	-0.181781
N	 1.8414425542	 2.6769813729	-1.1977106922	-0.175732
C	 2.6789395134	 3.5117157667	-0.2045111995	-0.174417
H	-0.4746732623	 3.9788646965	-0.191488154	 0.139989
H	-0.1016246588	 3.5942724313	 1.5295461625	 0.129359
H	 2.7434525753	 1.9559237373	 1.6154731446	 0.084505
H	 3.7533444973	 1.5672775533	-1.126175715	 0.108822
H	 2.2887822388	 0.5207856023	-0.9122629119	 0.148265
H	 2.187642415	 4.4327068406	 0.1206098242	 0.108792
H	 3.6934632643	 3.7077932607	-0.5602993704	 0.11336
