20
gdb 64090	3.20117	1.23386	1.12338	3.7995	75.33	-0.2345	0.0293	0.2638	1170.7106	0.170963	-440.33074	-440.321714	-440.32077	-440.364024	34.639	
C	-0.1369818092	 1.5900312798	 0.0615912691	-0.430282
C	-0.0243142749	 0.0576404196	 0.0208388322	 0.346445
C	-1.410192703	-0.5817958379	-0.0392834442	-0.418629
O	 0.6418333714	-0.3906926944	-1.1660037017	-0.28883
C	 1.9744079406	 0.0607705237	-1.3147306442	-0.19557
C	 2.843102262	 0.0111162823	-0.0603757348	 0.373442
O	 4.0474110311	 0.1737014285	-0.120666728	-0.374947
N	 2.1707868564	-0.163872456	 1.1118299827	-0.321951
C	 0.7573541712	-0.4914584682	 1.2268266143	-0.168485
H	 0.8314811926	 2.0745723649	 0.2087118238	 0.129793
H	-0.5686525973	 1.9533910538	-0.8752749849	 0.127986
H	-0.790323953	 1.8998677206	 0.8828117579	 0.117711
H	-1.9695979961	-0.185439999	-0.8906891726	 0.12725
H	-1.3225453765	-1.6644005964	-0.1625733414	 0.126673
H	-1.975984963	-0.3745520266	 0.8740355739	 0.114788
H	 2.4437698096	-0.5770972963	-2.0676315645	 0.1423
H	 2.0174727146	 1.0937453183	-1.6928546045	 0.122926
H	 2.7603569256	-0.2332484194	 1.9290216744	 0.24838
H	 0.3675733592	-0.0595070147	 2.1552146457	 0.110915
H	 0.6100815088	-1.5791589428	 1.2781655168	 0.110086
