20
gdb 5842	3.1823	1.38987	1.24249	2.466	71.42	-0.2393	-0.0085	0.2308	1108.9287	0.172599	-386.172343	-386.162089	-386.161145	-386.207618	36.868	
C	 0.0085534411	 1.5893349518	 0.1383299006	-0.38511
C	-0.0943417275	 0.0790150568	 0.3284531424	-0.273612
C	-1.4133547327	-0.4948594992	-0.1496155775	 0.37363
O	-2.2869278184	 0.1914491276	-0.6318719907	-0.331249
C	-1.6417892213	-2.0162609839	-0.0117334599	 0.256196
C	-2.8627602453	-2.243492899	 0.8926167729	-0.410294
C	-1.8686894449	-2.6015215927	-1.414000113	-0.410286
O	-0.4670585529	-2.5706321382	 0.5805267077	-0.465485
H	 0.9743279072	 1.9571012485	 0.4961491548	 0.107883
H	-0.0961959405	 1.860408805	-0.9155464225	 0.127674
H	-0.7834496109	 2.1086426287	 0.6843791156	 0.127661
H	 0.7087525157	-0.457775238	-0.1923054271	 0.13247
H	 0.0335686655	-0.2141291536	 1.3781981592	 0.132508
H	-3.7344263978	-1.7209136763	 0.4926878544	 0.143116
H	-3.0934239829	-3.3132485922	 0.9555599168	 0.10308
H	-2.6638163574	-1.8754254439	 1.9033767814	 0.122919
H	-0.9702679007	-2.4848854134	-2.0271295418	 0.122922
H	-2.1012840014	-3.6704857507	-1.3449439458	 0.103093
H	-2.700327866	-2.0940627812	-1.9076675423	 0.143103
H	-0.6030686288	-3.5193730561	 0.6689011347	 0.279781
