17
gdb 71135	3.13541	1.64223	1.33208	3.5877	71.62	-0.2355	-0.0119	0.2236	976.5455	0.135711	-421.82106	-421.813819	-421.812875	-421.85243	29.201	
C	-0.0241708809	 1.5022094623	 0.0451988639	-0.47664
C	-0.0352812157	 0.0024220083	-0.0784126789	 0.397038
C	 0.8265247032	-0.6507770778	-1.1546374756	-0.361033
C	 0.3565943789	-2.1173318745	-1.147790675	 0.428141
O	 0.8663544717	-3.0302742972	-1.7455386833	-0.328831
C	-0.8807718707	-2.1773478839	-0.305977831	-0.210571
C	-0.8137230088	-1.4810768052	 1.0688935206	 0.101198
O	 0.3320249937	-0.6583927665	 1.1951992854	-0.329842
C	-1.3985343571	-0.7612026984	-0.0800797079	-0.21289
H	 0.9867979811	 1.8567774565	 0.2684502794	 0.135906
H	-0.3533537803	 1.966450083	-0.8902754057	 0.123214
H	-0.6882170221	 1.8263189426	 0.851038342	 0.131313
H	 0.6303367501	-0.2174037942	-2.1432957172	 0.126573
H	 1.897254184	-0.5789239655	-0.949754048	 0.13652
H	-1.558197885	-3.0166839275	-0.3991206905	 0.110433
H	-1.2322120692	-1.9317406536	 1.9604771713	 0.120839
H	-2.3868014029	-0.3874829085	-0.3093002495	 0.108633
