16
gdb 22740	2.58195	1.38393	0.99664	1.2903	69.77	-0.2574	-0.029	0.2283	1160.9565	0.121901	-474.931758	-474.923089	-474.922145	-474.965425	32.054	
O	-0.1693065311	 1.3311457524	 0.1519501416	-0.400799
N	 0.0192670851	-0.0675893877	 0.139363229	-0.244631
C	-1.1026401709	-0.6534152255	 0.0949576381	 0.326749
C	-2.5534581838	-0.2011447607	-0.0422776125	 0.032595
O	-2.8304149251	 0.6756348113	-1.1058696839	-0.431824
C	-2.9367515926	-1.6888961838	-0.3244885054	-0.344787
C	-1.4788543262	-2.0970744382	-0.0363133232	 0.360501
C	-0.686054972	-3.2530765701	-0.4653139325	-0.254024
O	-1.1076787733	-3.1038492035	 0.8936911973	-0.259891
H	 0.7345370355	 1.6643892174	 0.1630051486	 0.314719
H	-2.962681276	 0.1647233745	 0.911114488	 0.095161
H	-2.2430059697	 1.4334128498	-0.998089348	 0.298644
H	-3.6757763574	-2.1233127994	 0.3500862065	 0.125097
H	-3.2399286099	-1.8372598308	-1.3627233773	 0.129359
H	-1.1726860628	-4.0522992094	-1.0231501202	 0.121759
H	 0.3814585803	-3.1313316963	-0.6403860162	 0.131372
