22
gdb 89724	2.63179	1.34191	0.99589	1.369	89.74	-0.2172	0.0272	0.2444	1282.7749	0.194528	-367.213174	-367.204003	-367.203059	-367.246846	35.424	
C	-0.009385971	 1.5943844029	-0.0393465044	-0.395121
C	 0.0131277015	 0.0630202934	 0.0186757538	-0.015962
C	 0.7234094235	-0.602831276	-1.1908062763	-0.32599
C	 1.4809825492	-1.7946617344	-0.6012040075	 0.265026
C	 1.3647609961	-3.169955889	-1.1675284698	-0.291715
N	 2.6237200552	-2.4142595731	-1.2950991877	-0.361841
C	 1.584524692	-1.518379886	 0.8674366898	 0.28423
C	 2.4702849872	-2.3217395134	 1.7642274169	-0.500368
C	 0.7799133715	-0.5038429072	 1.1952105251	-0.18792
H	 1.0085332968	 1.9975101924	-0.0812154641	 0.115148
H	-0.5512249119	 1.9495978402	-0.922704731	 0.110654
H	-0.5006605207	 2.0162540935	 0.8440573395	 0.111586
H	-1.0301345787	-0.2851681174	 0.0675715324	 0.077453
H	 0.0356510759	-0.8829672775	-1.993978437	 0.09583
H	 1.4490915572	 0.1063360582	-1.6109825925	 0.10139
H	 1.4207733496	-4.0436885264	-0.5234671237	 0.113827
H	 0.7374116922	-3.2991209754	-2.046508176	 0.107825
H	 2.7027709759	-2.0282570735	-2.2333647839	 0.227348
H	 3.4936294915	-2.3398312926	 1.374996389	 0.145389
H	 2.4809542763	-1.918556958	 2.7800520604	 0.118058
H	 2.1407986552	-3.367135113	 1.8202016933	 0.123467
H	 0.6478731055	-0.1222849378	 2.2032947137	 0.081687
