14
gdb 130892	6.09428	1.08336	0.93079	6.3628	72.5	-0.2523	-0.0556	0.1966	1180.936	0.102758	-432.858883	-432.851776	-432.850832	-432.890931	25.492	
O	-0.1684119552	 0.0486813977	 0.346794668	-0.250504
C	-0.0200996472	 1.2293078261	 0.153071553	 0.09581
C	 1.2759620606	 1.8955579913	-0.0914811888	 0.219981
N	 2.45273232	 1.2370875946	-0.1235093125	-0.307144
N	 3.268670778	 2.2663138038	-0.3692252643	 0.0981
C	 4.6249353015	 2.8108123725	-0.6016390118	-0.169149
C	 3.897159018	 4.2169907135	-0.7328465907	-0.370126
C	 2.6208299285	 3.4254313029	-0.4714703624	 0.374998
N	 1.3264536662	 3.2628081549	-0.3029310514	-0.398981
H	-0.86758263	 1.9455455503	 0.1400671623	 0.094743
H	 5.291994527	 2.6991219167	 0.2547651073	 0.154464
H	 5.0965495693	 2.4329192103	-1.5102624078	 0.154452
H	 4.1701908179	 4.9423642819	 0.0352205012	 0.151667
H	 3.9748301355	 4.6773375336	-1.719122882	 0.151688
