16
gdb 87277	2.27132	1.60253	1.11019	1.7178	68.41	-0.2544	-0.0379	0.2164	1082.6016	0.12332	-475.061213	-475.052769	-475.051825	-475.094119	32.112	
N	 0.1441146725	 1.1451868382	 0.5037573687	-0.549158
C	 0.0347629103	-0.0478985437	-0.1063985786	 0.399106
O	 0.9735610708	-0.5895899688	-0.6974383155	-0.428094
C	-1.304526589	-0.7227716395	-0.028291483	 0.032292
C	-1.6423389313	-1.6606781873	-1.210505292	-0.356749
C	-1.2031307873	-2.3227521038	 0.0236310361	 0.131296
O	 0.0170826903	-2.9093196898	 0.1839528596	-0.404105
C	-2.4378334502	-0.1527734065	 0.711414879	 0.11045
O	-2.4397171407	 0.8741488884	 1.3623795229	-0.305661
H	 1.0462793148	 1.5922842552	 0.509158338	 0.263235
H	-0.6449352714	 1.5192436555	 1.0170772121	 0.288307
H	-2.6877707168	-1.7105786171	-1.4967090963	 0.130975
H	-0.9315289489	-1.603046311	-2.026865766	 0.157976
H	-1.9557320414	-2.787855103	 0.6531547969	 0.126545
H	 0.6674830227	-2.3260723399	-0.2612950935	 0.314961
H	-3.3636037543	-0.7662933669	 0.6485333916	 0.088624
