19
gdb 1483	6.54277	1.1887	1.08159	2.8115	68.5	-0.2474	-0.0192	0.2282	1111.1501	0.169072	-310.940195	-310.931223	-310.930278	-310.974155	31.147	
C	 0.0864301235	 1.5544443731	 0.0930075135	-0.392981
C	-0.0237119825	 0.0284337876	 0.0174809013	-0.16677
C	-1.4629285966	-0.5084881694	-0.0931907822	 0.031165
C	-2.1721179779	-0.041676441	-1.3732288715	-0.392128
C	-1.4663339911	-2.0502628868	-0.0006446458	-0.274771
C	-2.8556824096	-2.6167803876	 0.1754994124	 0.158268
O	-3.3632754015	-3.4554859711	-0.5235865407	-0.242051
H	 1.1255260314	 1.8605120006	 0.2485650546	 0.116051
H	-0.2621733003	 2.0377851831	-0.8243732315	 0.121547
H	-0.504763721	 1.9533339745	 0.9251648896	 0.114513
H	 0.5602151871	-0.3407664861	-0.8367379469	 0.097771
H	 0.4410497118	-0.4056962436	 0.911975726	 0.092983
H	-2.0270921948	-0.1241433831	 0.7705616015	 0.074848
H	-1.6182046088	-0.3645385262	-2.2626607217	 0.119452
H	-3.1811759192	-0.4597197491	-1.4472046012	 0.125492
H	-2.2636303925	 1.0469107046	-1.4108260985	 0.119376
H	-1.0085991405	-2.5067960969	-0.8843450797	 0.116805
H	-0.8832962469	-2.3561908732	 0.8805626278	 0.112954
H	-3.4119064005	-2.1854011796	 1.043125043	 0.067475
