21
gdb 40518	3.01833	1.33699	1.14849	1.6296	81.9	-0.2579	0.0838	0.3417	1157.6097	0.183232	-387.042302	-387.034056	-387.033111	-387.075893	31.845	
C	 0.3758867093	 1.5022084834	 0.1190748514	-0.187543
O	 1.2910776029	 0.4297010399	-0.1110051624	-0.237771
C	-0.0998128355	 0.1142824377	 0.0237933654	-0.037028
C	-0.5240533977	-0.6838410275	 1.2157557241	 0.390334
C	 0.2766983528	-0.5194528317	 2.5355418278	-0.300926
C	 0.4230886488	-2.0671629693	 2.6488076669	-0.221211
C	-0.3567174758	-2.2541718207	 1.321903001	-0.072734
C	-1.8903400469	-2.404726977	 1.4850182869	-0.217156
C	-2.060727393	-0.8576823111	 1.4056621203	-0.294115
H	 0.4521056126	 1.9758359889	 1.0968438031	 0.112088
H	 0.2328850008	 2.1842335495	-0.7179358934	 0.114392
H	-0.5678683095	-0.1859576218	-0.9170342784	 0.086076
H	 1.233883047	-0.0187582832	 2.3754550511	 0.119546
H	-0.2552153573	-0.0182482468	 3.3494735516	 0.088948
H	 1.4605860331	-2.4054510426	 2.6009789242	 0.105555
H	-0.0450302571	-2.5282578814	 3.523672831	 0.093602
H	 0.1245983983	-2.851907365	 0.5461679783	 0.065633
H	-2.3699500729	-2.9307971094	 0.6557265833	 0.100008
H	-2.2151283407	-2.8773763072	 2.4166966131	 0.096003
H	-2.4711025875	-0.3671817951	 2.2929336007	 0.097443
H	-2.6445505316	-0.5288098596	 0.5405802439	 0.098856
