19
gdb 50999	3.57823	0.99446	0.90273	2.1081	75.64	-0.2564	-0.032	0.2243	1317.6916	0.15724	-422.993244	-422.984134	-422.98319	-423.028362	32.953	
O	-0.4033644411	 0.0629243046	-0.318474708	-0.236631
C	-0.23444907	 1.1948165182	 0.0571109264	 0.140331
C	 1.1086642674	 1.8947256943	 0.0742771208	-0.33879
C	 1.3396989486	 2.8138108364	-1.1287620563	 0.29908
C	 0.9857200649	 2.3413312056	-2.5138517609	-0.305622
C	 0.1809650197	 3.4457779043	-1.8706234174	-0.311098
C	 2.576725353	 3.6525886437	-0.961725811	 0.009031
C	 3.8823512326	 3.2560877597	-1.5073840919	-0.177885
O	 3.1018764884	 4.2866260713	-2.1242937782	-0.236315
H	-1.091368226	 1.8080819204	 0.4167321194	 0.083305
H	 1.1689573644	 2.4893289089	 0.9968510926	 0.108654
H	 1.8897384246	 1.1276343001	 0.105198495	 0.126476
H	 1.6528615689	 2.6247770749	-3.3192527555	 0.132257
H	 0.5302910755	 1.3618598853	-2.6093172095	 0.131462
H	-0.8340281651	 3.2342897067	-1.5537136176	 0.115014
H	 0.329713656	 4.4513253712	-2.2479852653	 0.129445
H	 2.5749012454	 4.2913739576	-0.0749322378	 0.09163
H	 4.7995818056	 3.5935118697	-1.0279851214	 0.119482
H	 3.960392667	 2.332341437	-2.0779389334	 0.120173
