16
gdb 5387	4.93687	1.52341	1.26344	2.3519	72.39	-0.248	-0.036	0.2119	971.9973	0.133086	-342.848368	-342.841265	-342.840321	-342.880421	25.938	
C	 0.131049836	 1.5414276452	 0.1475760124	-0.371882
C	-0.0636303503	 0.028566015	-0.0478155335	-0.270366
C	 0.6958907064	-0.4903311354	-1.2419238737	 0.33255
N	 0.2766952738	-0.0834806626	-2.450163953	-0.291178
C	 0.9566079217	-0.5295733635	-3.5039111184	 0.067332
N	 2.0155944664	-1.3420732204	-3.5024727968	-0.252287
C	 2.4239591173	-1.740635056	-2.2952597717	 0.025622
C	 1.7952134289	-1.3410849448	-1.1232598985	-0.183637
H	 1.1795867905	 1.7815800251	 0.3510049771	 0.118091
H	-0.1724703789	 2.079800256	-0.7537813031	 0.142915
H	-0.4692740012	 1.902258291	 0.9875715372	 0.116857
H	 0.2473574432	-0.5140606551	 0.8508626576	 0.101542
H	-1.1280747199	-0.1783697559	-0.2053965471	 0.125064
H	 0.6076315233	-0.1954554919	-4.4787691599	 0.11761
H	 3.285305221	-2.4049179307	-2.2685980612	 0.117556
H	 2.1444945516	-1.679339216	-0.1542331277	 0.104211
