16
gdb 87310	1.88504	1.61791	1.06711	6.1857	74.06	-0.2717	-0.0019	0.2698	1150.2994	0.123115	-396.916999	-396.907926	-396.906981	-396.951174	32.252	
C	-0.271144639	 1.4403003301	 0.2491230835	-0.333969
N	 0.0185653253	 0.0141604749	 0.1573339217	-0.08401
C	 1.3507361843	-0.4252730163	-0.1936580996	-0.277668
C	 0.8119178729	-0.6463087125	 1.1938898205	 0.137806
C	 1.4496731385	 0.1185349936	 2.3601428621	-0.428062
C	 0.4784249243	 0.5284315178	 3.3758337043	 0.286957
N	-0.2913069139	 0.8675305138	 4.167273211	-0.296339
C	 0.3364711118	-1.9681376016	 1.5599028227	 0.290645
N	-0.0063405918	-3.0292845341	 1.8628686942	-0.324629
H	 0.5904416033	 2.0632898567	 0.5323325982	 0.107185
H	-0.6187999628	 1.7739080458	-0.7322235719	 0.145891
H	-1.0742130041	 1.5987024712	 0.9726928803	 0.163275
H	 1.4203376532	-1.2571075376	-0.8881861417	 0.148959
H	 2.1415601138	 0.3207470904	-0.2809112702	 0.121852
H	 2.2073710232	-0.51704543	 2.8305740646	 0.179549
H	 1.9673377609	 1.0078230677	 1.9921238905	 0.162555
