21
gdb 72140	2.48874	1.9403	1.73321	1.7585	80.21	-0.232	0.0847	0.3167	940.696	0.185879	-387.106865	-387.099914	-387.09897	-387.137574	29.925	
C	-0.0080110737	 1.5011991105	-0.0296182501	-0.511416
C	 0.0229645022	-0.0097340903	-0.0558968753	 0.338135
C	 0.5070079893	-0.7505126482	-1.3067123668	-0.278483
C	 0.3107023501	-2.172227431	-0.7361356301	-0.035363
C	 1.1603799526	-2.0866901795	 0.5578017833	-0.22956
C	 0.6556672785	-0.7623737752	 1.1630248814	 0.065634
O	-0.6500605977	-0.9675425985	 1.7563321289	-0.30725
C	-1.2398252067	-0.7887633776	 0.4451320334	 0.06563
C	-1.1846510528	-2.11933811	-0.3303493958	-0.22956
H	 0.9917672623	 1.9215532746	-0.1877807092	 0.113773
H	-0.6619178983	 1.8985546999	-0.8143368926	 0.113773
H	-0.3779866989	 1.868132138	 0.9334088502	 0.128427
H	-0.1131250926	-0.5476501233	-2.1867629343	 0.090822
H	 1.5493233519	-0.5245091273	-1.5571302039	 0.090823
H	 0.5732729544	-2.9984770969	-1.3990409123	 0.059284
H	 1.0074817698	-2.9180595766	 1.2510781433	 0.103366
H	 2.2276280489	-2.0291031068	 0.3137685569	 0.091335
H	 1.3432859953	-0.2527658473	 1.8431170965	 0.067965
H	-2.2175804159	-0.3023438915	 0.4944856483	 0.067965
H	-1.8235861064	-2.085506347	-1.220576374	 0.091335
H	-1.5090995224	-2.9530960262	 0.2979548522	 0.103366
