21
gdb 36824	5.92615	0.55459	0.54021	0.2525	94.54	-0.226	0.0559	0.2819	2121.1642	0.182198	-349.90286	-349.893283	-349.892338	-349.939284	34.975	
C	-0.1524310849	 1.5547952649	 0.0170705871	-0.378111
C	-0.1873821273	 0.0983975383	-0.0945477153	 0.056137
C	-0.1934093555	-1.1048590685	-0.1737626691	 0.091406
C	-0.2044596283	-2.5356164704	-0.2804202114	-0.153392
C	-0.042252376	-3.4014617818	 0.9594079963	-0.25186
C	-1.3729690257	-3.3387585528	 0.2698584434	-0.251455
C	 1.246391562	 2.1113609101	 0.244896979	 0.04949
C	 2.1466055285	 2.3958692575	-0.9266284501	-0.246138
C	 1.5561662926	 3.5367070614	-0.1313706885	-0.278877
H	-0.5723180666	 2.0062198249	-0.8925582213	 0.119245
H	-0.8109531305	 1.8721404706	 0.8375659284	 0.124755
H	 0.2465868922	-2.9303326831	-1.186624041	 0.106099
H	 0.5515199264	-4.303419763	 0.8619720117	 0.11563
H	 0.0659239323	-2.8870613653	 1.906739559	 0.123792
H	-2.1696248535	-2.7820106184	 0.7484878273	 0.124228
H	-1.7010515329	-4.1973480171	-0.3052578499	 0.115728
H	 1.7292552238	 1.7296394031	 1.1395568418	 0.089963
H	 3.2066177739	 2.1907856353	-0.8273707319	 0.111081
H	 1.7523522736	 2.2144822877	-1.9213704825	 0.112714
H	 0.768187129	 4.1223420442	-0.5945501478	 0.108863
H	 2.2107990768	 4.1113325225	 0.5145207946	 0.110704
