21
gdb 71899	2.30398	1.80679	1.57076	1.9239	81.74	-0.2337	0.0745	0.3082	1009.2432	0.182281	-387.057313	-387.049074	-387.04813	-387.089384	33.024	
C	 0.0939079552	 1.5452478556	 0.024476202	-0.494103
C	-0.0057603697	 0.0376446273	 0.0047677404	 0.279207
C	 0.4476846169	-0.7200843484	-1.276861662	-0.285959
C	-0.6844493465	-1.7485687836	-1.0659655049	 0.056319
O	-0.3552294411	-2.7052396684	-0.0349482878	-0.3076
C	-0.7315267414	-1.7725116122	 1.0018817212	 0.056321
C	 0.3892962043	-0.7497807912	 1.28782185	-0.285961
C	-1.3663543079	-0.797029347	-0.0358749247	 0.285463
C	-2.7674159239	-0.2619467729	-0.0615797507	-0.540036
H	 1.1428276856	 1.8658415919	 0.0519110983	 0.119572
H	-0.3619319042	 1.9911653287	-0.8670380549	 0.111208
H	-0.4020026474	 1.9706677976	 0.9045445463	 0.111207
H	 0.2529345625	-0.1141760135	-2.1695046248	 0.093323
H	 1.4691922428	-1.1089928688	-1.3192848057	 0.09844
H	-1.1556055929	-2.2229441313	-1.9302776445	 0.071745
H	-1.2412762464	-2.2665126789	 1.8326489051	 0.071744
H	 1.4080193631	-1.1401063934	 1.3676720203	 0.09844
H	 0.1538092087	-0.1645924739	 2.1844625127	 0.093323
H	-2.9790030198	 0.3479789242	 0.8243805168	 0.120281
H	-2.9390140678	 0.3678201845	-0.9422911078	 0.120281
H	-3.50078168	-1.076162056	-0.0873301355	 0.126785
