13
gdb 24761	3.53779	1.65916	1.12946	2.5965	72.14	-0.2172	-0.0914	0.1258	973.5423	0.091298	-419.461817	-419.455494	-419.45455	-419.492559	24.71	
O	-0.0670860767	-0.0372268374	 0.0056357297	-0.295165
C	-0.0023609293	 1.166752898	 0.0099627221	 0.265471
C	-1.2013544387	 2.1253634675	 0.0310400182	-0.179308
C	-0.7678905348	 3.397949279	 0.0306208123	-0.215005
C	 0.7016343999	 3.3361888157	 0.009940229	 0.328075
C	 1.1892035239	 2.0652434155	-0.00251019	 0.127013
C	 2.6110851014	 2.1901446992	-0.0216068152	-0.366374
C	 2.8531092066	 3.5339464163	-0.018914531	-0.016918
O	 1.6737499641	 4.2542284947	 0.0005975828	-0.192951
H	-2.2211232823	 1.7688459726	 0.0436819718	 0.129595
H	-1.3606794083	 4.3022355159	 0.0429090559	 0.134644
H	 3.3579145179	 1.4123157249	-0.0354340843	 0.135228
H	 3.7504861265	 4.1288651279	-0.0286570513	 0.145695
