24
gdb 59999	2.43559	1.05695	0.85581	1.3622	86.28	-0.226	0.0707	0.2968	1487.1054	0.215461	-405.522733	-405.512093	-405.511149	-405.558149	39.856	
C	-0.1045171244	 1.5186148112	 0.086239323	-0.399985
C	 0.0563675839	-0.001930024	 0.1004538253	 0.127681
O	-1.1992585443	-0.6462862192	 0.3312526325	-0.429599
C	 0.7393647507	-0.5163342269	-1.1734686829	-0.201651
C	 0.8868587694	-2.0417841828	-1.2812305263	 0.06166
C	 1.5004948024	-2.4295502191	-2.6291803529	-0.391498
N	 1.7497820973	-2.5443414677	-0.2065330292	-0.071851
C	 1.0921539429	-2.9430390646	 1.0394570642	-0.228486
C	 1.6197086016	-3.9663236116	 0.0999580254	-0.230903
H	 0.8665141173	 2.0187044458	 0.0105629032	 0.117488
H	-0.7106260115	 1.8385580948	-0.7711678097	 0.103098
H	-0.6005227995	 1.8570704963	 0.9999455881	 0.121842
H	 0.6635826258	-0.2822613562	 0.9668423501	 0.104463
H	-1.7845813003	-0.4168618533	-0.3994800331	 0.274876
H	 0.1664453797	-0.1639270122	-2.0441953688	 0.076891
H	 1.7345397577	-0.0608433156	-1.2479776678	 0.102964
H	-0.1208483665	-2.4887041299	-1.2088369309	 0.058476
H	 2.5049441369	-2.0055164283	-2.7276122655	 0.121792
H	 1.5829976605	-3.5163429197	-2.7247380497	 0.112714
H	 0.8861989011	-2.062819669	-3.4574784613	 0.106483
H	 1.635158409	-2.7064562655	 1.9507603309	 0.109423
H	 0.0138184873	-2.8204712744	 1.101781622	 0.136999
H	 0.8881907645	-4.5450336183	-0.4627156179	 0.106171
H	 2.5452332786	-4.49335005	 0.3144053711	 0.110951
