16
gdb 14630	5.80657	0.91366	0.8251	0.0005	63.16	-0.251	0.0205	0.2715	1315.175	0.130573	-417.108868	-417.099896	-417.098951	-417.144032	29.973	
O	 0.5050861358	 0.5669470454	-1.1771608992	-0.328899
C	 0.2859996311	 1.3805655547	-0.3024142749	 0.151569
N	 1.2153419299	 1.8296689691	 0.5794995505	-0.265802
C	 2.5914982524	 1.3621403362	 0.5503758766	-0.160108
C	 3.40179071	 2.0141071445	-0.5855166115	-0.160108
N	 4.7779613837	 1.546609155	-0.6146134795	-0.265804
C	 5.7072968847	 1.9957474787	 0.2672862161	 0.151569
O	 5.4881812607	 2.8093094337	 1.1420777149	-0.328898
H	-0.7092117483	 1.8368113172	-0.1322611851	 0.079229
H	 0.9480491517	 2.5343946251	 1.2471470729	 0.256146
H	 3.0624491034	 1.5951953825	 1.506964059	 0.137529
H	 2.5863539314	 0.2765663976	 0.4148921006	 0.130344
H	 2.9308803232	 1.7809732958	-1.5421037339	 0.137526
H	 3.4068571914	 3.0996903239	-0.450105334	 0.130335
H	 5.0453368008	 0.8420691099	-1.2824229504	 0.256147
H	 6.702529288	 1.5395623407	 0.097092028	 0.079226
