15
gdb 127519	3.18495	1.44881	1.00202	2.8053	72.3	-0.2188	-0.0587	0.1601	1108.6773	0.113541	-453.991695	-453.983793	-453.982849	-454.024444	29.332	
C	-0.0230595187	 1.4089635757	-0.0459153026	-0.312328
N	 0.0038067294	-0.0478416823	-0.0213155148	-0.065625
N	-0.0296341835	-0.6656585734	-1.2252750568	-0.325146
C	-0.0069181138	-1.9623512573	-1.2353450921	 0.439718
O	-0.0394329564	-2.6039663734	-2.4257275249	-0.418016
C	 0.0509437547	-2.7629354169	-0.0536768173	-0.165682
C	 0.0836912558	-2.1294655402	 1.1395135041	-0.181903
C	 0.0609183784	-0.6748840652	 1.224549592	 0.420668
O	 0.0872380977	-0.0168663313	 2.2559202252	-0.408692
H	 0.87135237	 1.8087808116	 0.4391202195	 0.151783
H	-0.0671686928	 1.7209468531	-1.0875749892	 0.141298
H	-0.8928299255	 1.7773361176	 0.5044318841	 0.151791
H	-0.0768667945	-1.924938693	-3.1129754651	 0.304845
H	 0.0666840985	-3.8427463567	-0.1482638142	 0.131476
H	 0.1279441806	-2.6603040183	 2.0826877422	 0.135812
