20
gdb 7976	3.34739	1.59292	1.21495	2.0091	77.19	-0.2404	0.0168	0.2572	1062.7587	0.176749	-349.028156	-349.019466	-349.018522	-349.060957	32.857	
C	-0.6849917463	 1.3266994581	 0.1203130505	-0.390813
C	 0.1230892247	 0.0382056077	-0.006167614	-0.000092
C	 1.2149109425	 0.0479061929	-1.1049740675	-0.317586
C	 2.3123345757	-0.8282063891	-0.5356711546	 0.330578
C	 3.4678867592	-1.2803676772	-1.371353319	-0.490821
C	 2.0941797149	-1.0946727989	 0.7564837803	-0.214851
C	 0.8755242481	-0.3879851573	 1.2931297975	 0.089365
O	 1.2341826315	 0.6966406381	 2.1567146739	-0.430379
H	-0.0428959436	 2.1690174348	 0.3936651635	 0.111309
H	-1.1841745856	 1.5689856794	-0.8238947841	 0.104831
H	-1.4525492689	 1.2392301958	 0.8956340036	 0.116417
H	-0.5615384263	-0.7859735532	-0.2420172669	 0.075995
H	 0.839852455	-0.3258709147	-2.0655912554	 0.101211
H	 1.5945663153	 1.0610842511	-1.3064063744	 0.098517
H	 4.0089980334	-0.423168197	-1.7924221604	 0.125923
H	 4.1762325003	-1.8815427182	-0.7950972806	 0.124955
H	 3.1262277073	-1.8783284946	-2.2257527777	 0.127804
H	 2.7526858344	-1.6757535747	 1.3940089554	 0.086651
H	 0.2407504404	-1.0226842034	 1.9206008796	 0.079095
H	 1.9884082479	 1.1411864306	 1.7543945302	 0.271891
