18
gdb 11917	4.44492	1.43787	1.23138	2.7787	67.41	-0.2571	0.0658	0.3229	1001.2533	0.154083	-384.930645	-384.923051	-384.922106	-384.962846	29.21	
O	-0.0079833113	 1.3957597386	-0.104793547	-0.435241
C	 0.0057078816	-0.0142769909	 0.0204575728	 0.137499
C	 0.6083713961	-0.5467480439	 1.3353867679	-0.252232
C	 0.0404531865	-1.971958799	 1.4275913292	-0.291495
C	-1.3692802115	-1.8451017798	 0.8394619064	 0.448083
C	-2.234792571	-3.0034252167	 0.5968984022	-0.257179
O	-2.4746396798	-2.1318544819	 1.7051015856	-0.272547
C	-1.4376109922	-0.5391208933	 0.0460781233	-0.298833
H	 0.9036334716	 1.7015322177	-0.1437590768	 0.281555
H	 0.5457906575	-0.4681479057	-0.8275556775	 0.063878
H	 1.7019742413	-0.5096512024	 1.3542874528	 0.087708
H	 0.2336043492	 0.0742606272	 2.1574224599	 0.113875
H	 0.6383305928	-2.6593788568	 0.8166151557	 0.103857
H	 0.0058707692	-2.3742661029	 2.4425132512	 0.11776
H	-2.9797536415	-2.9672097372	-0.1979873544	 0.10975
H	-1.8867440785	-4.0041970632	 0.8551051923	 0.107207
H	-2.0547208828	 0.1799411757	 0.595432938	 0.131286
H	-1.8685894074	-0.6560122356	-0.9509363816	 0.105071
