16
gdb 18030	3.87989	2.21882	1.55428	1.2916	66.1	-0.233	0.0194	0.2523	808.7039	0.133565	-379.898944	-379.892478	-379.891534	-379.929519	25.105	
C	-0.0024482569	 1.3931656582	-0.2056322842	-0.21014
N	 1.4488346595	 1.4422756355	 0.146092987	-0.363111
C	 1.4100812769	 0.1212491952	 0.5808681781	 0.366984
N	 2.0018612467	-0.5453022484	 1.4774321042	-0.322434
C	 1.2879048297	-1.8253086579	 1.6572182603	-0.18234
C	-0.2274250347	-1.5838043893	 1.737207661	-0.069827
O	-0.7776504121	-0.9732330839	 0.5572793805	-0.278734
C	 0.1245783894	-0.1704373721	-0.1566288071	 0.042071
H	-0.6606295012	 1.767419051	 0.5848056692	 0.121219
H	-0.2486157286	 1.8532944866	-1.1650231557	 0.115154
H	 1.8504974045	 2.172845402	 0.7208875053	 0.244474
H	 1.5138690102	-2.5316844663	 0.845544489	 0.108503
H	 1.6218903337	-2.2883740991	 2.5906370391	 0.109881
H	-0.7689725437	-2.5266214808	 1.8612596831	 0.1101
H	-0.4338879244	-0.948553832	 2.6109487342	 0.100537
H	 0.265959061	-0.5812161388	-1.1625514539	 0.107663
