16
gdb 128777	3.48017	1.03181	0.8083	4.0921	68.56	-0.2226	0.0022	0.2248	1365.5827	0.124603	-471.187578	-471.178841	-471.177897	-471.222233	30.57	
C	-0.1349376137	 1.3685206462	-0.0559002627	-0.228187
O	-0.1529616029	-0.0345981978	 0.0924173895	-0.250396
C	 0.7608993556	-0.4959766154	 1.0673690108	-0.179387
C	 0.7052783787	-1.9846525842	 1.0734526062	 0.247959
C	 1.0556257428	-2.958326778	 1.982550789	 0.273
O	 1.5655317068	-2.7779337793	 3.2183007108	-0.433244
N	 0.8180630527	-4.1813856488	 1.4567779158	-0.281282
N	 0.3249882676	-4.0337692854	 0.2495026035	-0.127611
N	 0.2695633563	-2.7200605729	 0.0167108613	-0.215096
H	 0.857901995	 1.7314072552	-0.3628109941	 0.11283
H	-0.862076663	 1.6217186697	-0.8302396113	 0.135303
H	-0.4161119542	 1.8768738421	 0.8784729484	 0.115492
H	 1.7786896252	-0.1383395155	 0.8301618382	 0.113663
H	 0.5140992074	-0.1077080796	 2.0685033107	 0.122019
H	 1.6800285891	-3.6570145435	 3.6011105693	 0.307375
H	-0.1249448034	-2.3631513627	-0.8393967756	 0.287562
