21
gdb 92047	2.65677	1.44823	1.02656	2.3271	84.23	-0.2341	0.0075	0.2415	1213.3873	0.183024	-387.092227	-387.083639	-387.082695	-387.12527	33.709	
C	 0.2027327834	 1.6063438548	-0.0920941242	-0.402541
C	 0.0405754268	 0.0828452929	 0.0365186269	-0.086962
C	 0.4820099023	-0.588016717	-1.284324385	-0.226122
C	 0.6533550314	-2.0956756555	-1.1950788758	 0.013042
O	 1.9909666459	-2.5602537327	-0.9784746487	-0.26059
C	 1.0324302021	-2.6765454589	 0.0971758315	 0.017267
C	 1.1813426563	-1.7722247817	 1.2605767953	-0.183232
C	 0.738314331	-0.5092340698	 1.2601634403	 0.327787
C	 0.8424842738	 0.3433491444	 2.4969456556	-0.482587
H	 1.2584819283	 1.8839261831	-0.1865885857	 0.121393
H	-0.3141565299	 1.9630701895	-0.9888787795	 0.114166
H	-0.2135381122	 2.1429461575	 0.764175802	 0.115632
H	-1.0353959329	-0.1130680004	 0.1739908667	 0.087656
H	-0.2393170503	-0.3361676019	-2.0694021232	 0.096001
H	 1.4462337673	-0.1667067071	-1.5914589506	 0.116636
H	 0.0860460082	-2.7020133665	-1.9006080906	 0.088171
H	 0.7615533124	-3.7086078559	 0.3195930835	 0.086759
H	 1.6458813406	-2.1824533701	 2.1540857712	 0.081569
H	 1.2785051094	-0.2198149242	 3.3258258054	 0.120609
H	 1.4586842247	 1.233980778	 2.3295634956	 0.130671
H	-0.1448562086	 0.7036434816	 2.8138998893	 0.124675
