21
gdb 90294	3.064	1.24697	1.12504	1.1767	85.52	-0.2309	0.0154	0.2463	1198.1271	0.183146	-387.075066	-387.066635	-387.06569	-387.107936	33.554	
C	-0.0990114529	 1.5855292852	 0.0408400421	-0.39329
C	 0.033088307	 0.0594687305	 0.0408646671	 0.011875
C	 0.7324247719	-0.508079617	-1.2443142415	-0.271001
C	 1.4927350946	-1.7459130221	-0.7434588006	-0.061941
C	 3.070605867	-1.9049719725	-0.7222737582	 0.115716
O	 3.7933878889	-0.7390099408	-1.0264870306	-0.424108
C	 2.9640589082	-2.2105710242	 0.8259722215	-0.351597
C	 1.6245081489	-1.5152875722	 0.7378289433	 0.26289
C	 0.9161213853	-0.4774650847	 1.1722515052	-0.248419
H	 0.8856058493	 2.0649446275	-0.0108298535	 0.106944
H	-0.6831204711	 1.9281074607	-0.8198827167	 0.114879
H	-0.5990745617	 1.944693848	 0.94668683	 0.112187
H	-0.9801298943	-0.363439541	 0.1196563056	 0.078141
H	 0.0235651853	-0.7171457195	-2.0503476038	 0.094896
H	 1.4469174876	 0.234454831	-1.6232693387	 0.100426
H	 1.0241509169	-2.6979737561	-1.0180080918	 0.072764
H	 3.4921227395	-2.6959801202	-1.3464728213	 0.087995
H	 3.4662770203	-0.0325547669	-0.4553827001	 0.279944
H	 2.8865486396	-3.2868462615	 1.0126274405	 0.112566
H	 3.7397946565	-1.7872949465	 1.4692621694	 0.109595
H	 0.9707623232	-0.0028280078	 2.1464618021	 0.089536
