14
gdb 132998	3.01028	1.34306	0.93404	2.2569	70.82	-0.2379	-0.0324	0.2055	1162.8078	0.10074	-477.997669	-477.990011	-477.989067	-478.030432	27.667	
C	 0.0489294533	 1.4324446961	-0.1074673202	-0.332836
N	 0.009864454	-0.0157487791	-0.0946885202	-0.309447
C	-1.0979198295	-0.625096966	 0.0519692658	 0.364832
C	-1.1438714356	-2.0881398959	 0.0656512638	-0.179583
C	-2.3050651481	-2.7204687745	 0.2192524442	 0.045185
O	-3.4966484892	-2.0347312473	 0.3698525181	-0.208756
C	-3.3784748922	-0.6973909576	 0.3475957494	 0.406341
F	-4.5696703408	-0.173747672	 0.4988929416	-0.039942
N	-2.3550792852	 0.0194563525	 0.2113238227	-0.419393
H	 0.722619167	 1.7733733275	 0.6881631712	 0.125278
H	 0.4956078819	 1.7641574691	-1.0527655902	 0.125291
H	-0.9259310584	 1.9151013322	 0.0170406618	 0.131891
H	-0.2218654887	-2.641133612	-0.0507575389	 0.13629
H	-2.4689029886	-3.787804883	 0.2460704609	 0.15485
