16
gdb 1473	7.20734	1.27962	1.16323	4.9708	61.52	-0.2866	0.0292	0.3159	1009.8534	0.135337	-325.796704	-325.788371	-325.787427	-325.829447	29.062	
C	 0.0406964704	 1.5550677617	-0.0403342008	-0.385188
C	-0.0078838169	 0.0265451863	 0.0135096888	-0.193781
C	-1.4397637655	-0.5222765212	 0.0172514154	 0.143657
O	-2.1822245474	-0.1057114178	-1.1143955222	-0.414712
C	-1.4385639536	-2.06391305	 0.1500139664	-0.370022
C	-2.782980422	-2.6330898667	 0.1896979132	 0.271389
N	-3.843627834	-3.088735865	 0.2328167061	-0.30305
H	 1.0722356945	 1.9138094628	-0.0965156558	 0.116433
H	-0.5042047721	 1.92842289	-0.9109656325	 0.13227
H	-0.4192771352	 1.9936106449	 0.8515684419	 0.121972
H	 0.5272775687	-0.3982141263	-0.8490195179	 0.090744
H	 0.515835257	-0.3375078753	 0.9062250286	 0.103041
H	-1.985019399	-0.1056204619	 0.8721869648	 0.111435
H	-1.7232706018	-0.4062510716	-1.9075793058	 0.282685
H	-0.8931331906	-2.5051899222	-0.6943020571	 0.140871
H	-0.9035129024	-2.3605553977	 1.0592870971	 0.152256
