19
gdb 62180	5.11725	0.59778	0.55713	3.5883	83.37	-0.247	0.0278	0.2748	1921.1987	0.157334	-382.039662	-382.02924	-382.028296	-382.076045	36.571	
C	-0.0206657858	 1.6106815591	-0.0834871015	-0.383269
C	-0.0188969554	 0.07086981	-0.0610937222	-0.159973
C	-1.444885138	-0.523351513	 0.0039055024	-0.126562
N	-2.0939494076	-0.1372200798	 1.2482209468	-0.301184
C	-3.5079020014	-0.5221651829	 1.2958364908	-0.280088
C	-4.0876242214	-0.2575502066	 2.6076121334	 0.268528
C	-4.5520861793	-0.0609045882	 3.6977306374	-0.413183
C	 0.6901359848	-0.4733957742	-1.2231018557	 0.264761
N	 1.2368137094	-0.8998055786	-2.1478669004	-0.320894
H	 0.9972594447	 2.0046036659	-0.0381406367	 0.132858
H	-0.4901338698	 1.9800642966	-0.9998081073	 0.133534
H	-0.5905851953	 1.9762736809	 0.7721466062	 0.146995
H	 0.5273908897	-0.2687192759	 0.8299163642	 0.124697
H	-2.0328546945	-0.1203792838	-0.8298821934	 0.123361
H	-1.3929824132	-1.6158080926	-0.1453345399	 0.104745
H	-1.615498467	-0.5628897699	 2.036682962	 0.225505
H	-4.0438197118	 0.0573566593	 0.5321985521	 0.14104
H	-3.6709037361	-1.586332418	 1.0414122439	 0.117279
H	-4.9710562918	 0.1204667916	 4.656582548	 0.20185
