19
gdb 115859	2.71207	1.51157	1.27257	1.9561	71.05	-0.2467	0.0736	0.3202	1068.4285	0.159718	-460.141549	-460.133079	-460.132135	-460.174973	31.736	
C	 0.2750611056	 1.2336367641	 0.2352853043	-0.244329
O	 0.2371494283	-0.177084736	 0.079069809	-0.253031
C	 0.5975084171	-0.6151342393	-1.2207638582	 0.198673
O	 1.9386851422	-0.2885542216	-1.5094999753	-0.277611
C	 2.739473688	-1.4519116549	-1.7565008452	-0.090713
C	 1.828969092	-2.6626501202	-1.6531241264	-0.117764
C	 1.2501248448	-2.9113917484	-0.2829393351	 0.117793
O	 1.8222349041	-2.3133996856	 0.8356061432	-0.42838
C	 0.4585727365	-2.1215281966	-1.2960258547	-0.162995
H	 1.2909977826	 1.6217129886	 0.106283268	 0.135646
H	-0.3885912106	 1.7233758713	-0.4920155373	 0.111774
H	-0.0785877802	 1.4530289601	 1.244682328	 0.129738
H	-0.0492324738	-0.0919818573	-1.9434167365	 0.076325
H	 3.1786643086	-1.3704635251	-2.7573995239	 0.101639
H	 3.5456850078	-1.4824062677	-1.0150054765	 0.121262
H	 1.9621754396	-3.4806322609	-2.3511134193	 0.094624
H	 0.8904023767	-3.9205959624	-0.0910684491	 0.093135
H	 1.3366640629	-1.4904746091	 0.994368156	 0.297661
H	-0.4616889219	-2.5254171591	-1.699361831	 0.096554
