21
gdb 67444	2.49353	1.68192	1.61608	0.4711	86.92	-0.2195	0.026	0.2455	1007.1551	0.184994	-349.950749	-349.943189	-349.942245	-349.982143	31.388	
C	-0.0282726447	 1.525119081	-0.0404269243	-0.510104
C	 0.0119245269	 0.0253739998	-0.0145904709	 0.343415
C	 0.5006715669	-0.9812239764	-1.0496345499	-0.117911
C	 1.2382531481	-1.7845911967	 0.0183326358	-0.241107
C	 0.6471364628	-0.8294663043	 1.1133896575	-0.08026
C	-0.3407203853	-1.4764488094	 2.0877464554	-0.268924
C	-1.4773238442	-2.1449232826	 1.3519208695	-0.083688
C	-1.7485001084	-1.8739995829	 0.0732093723	-0.047652
C	-0.9880586883	-0.8607849274	-0.7023745903	-0.120212
H	 0.9630233634	 1.9554558157	 0.1474610571	 0.113132
H	-0.3732297405	 1.8948978588	-1.0120882799	 0.115962
H	-0.7100950444	 1.9210556568	 0.7225077719	 0.118885
H	 0.8418618086	-0.8003110102	-2.0633411985	 0.077404
H	 0.977727885	-2.8442425411	 0.1063036711	 0.096011
H	 2.323773372	-1.6920566438	-0.0654415064	 0.096926
H	 1.4292493304	-0.2885952394	 1.6530708227	 0.063628
H	 0.1863268161	-2.2171717118	 2.7045807311	 0.10093
H	-0.7320466753	-0.7308084414	 2.7970619933	 0.102633
H	-2.0721223171	-2.8743901114	 1.895230588	 0.081875
H	-2.559225005	-2.3893554739	-0.4356055958	 0.080312
H	-1.5484223171	-0.3669937395	-1.4925621997	 0.078745
