21
gdb 114833	3.17745	1.28266	1.2205	1.7186	76.76	-0.2455	0.0853	0.3308	1151.1294	0.184867	-424.245087	-424.237138	-424.236194	-424.277671	31.351	
C	-0.0403645504	 1.6653130435	-0.0842167074	-0.38111
C	-0.1205463233	 0.1362211856	-0.0250805715	-0.202189
C	 0.6650219926	-0.5259035733	-1.149054158	 0.154225
O	 2.0802626854	-0.2478309703	-1.0260662954	-0.300248
C	 2.7117553508	-1.5183415161	-1.1835995092	 0.194909
C	 2.608408988	-2.2886727805	 0.1463233209	-0.233486
C	 1.1085364033	-2.7142233718	 0.0908378993	-0.227074
C	 0.6788042729	-2.067981876	-1.2435503203	 0.00967
O	 1.8602188984	-2.2418792341	-2.0515305395	-0.25298
H	 0.9995688639	 1.9960258938	-0.0170541564	 0.13731
H	-0.453393378	 2.0468805195	-1.0244342133	 0.114256
H	-0.6003462364	 2.1218865808	 0.7372790994	 0.1095
H	 0.2575498293	-0.2117794387	 0.9420036756	 0.101926
H	-1.1680868025	-0.186488822	-0.0954643539	 0.094245
H	 0.3204674992	-0.1232789671	-2.1132798169	 0.077359
H	 3.701429533	-1.3889845497	-1.6213406441	 0.088897
H	 3.2798811599	-3.1509662033	 0.1583747764	 0.104726
H	 2.8485720005	-1.6444649222	 0.9939860857	 0.109291
H	 1.0027584354	-3.7990598316	 0.0242273653	 0.108866
H	 0.5260633301	-2.3722549688	 0.9478439702	 0.107347
H	-0.1847024723	-2.5082232278	-1.740426077	 0.084561
