17
gdb 53840	2.93541	1.15632	0.92687	1.8673	69.99	-0.2361	-0.0714	0.1647	1260.3503	0.135945	-455.164981	-455.155966	-455.155022	-455.19938	32.701	
N	-0.0985692635	 0.9014187603	 0.6181151562	-0.508541
C	-0.2884466345	-0.4069455294	 0.3642366239	 0.329748
O	 0.3625899825	-1.3276695507	 0.831024288	-0.3591
C	-1.453409158	-0.6482337426	-0.6307852174	 0.317257
O	-2.0816769251	 0.293399364	-1.0581079532	-0.307666
C	-1.7346523139	-2.0926461905	-0.9784416754	-0.331147
C	-2.6247974185	-2.7396385729	 0.0794411101	 0.012342
C	-2.4102502188	-4.158902577	 0.4577157939	-0.241982
N	-2.0911157076	-3.0806454216	 1.4030794659	-0.314628
H	 0.6112833828	 1.1929650337	 1.2684079023	 0.273164
H	-0.7188768219	 1.5702969055	 0.1899578319	 0.282777
H	-2.2368616205	-2.1131889016	-1.949904247	 0.127099
H	-0.7878460271	-2.635986347	-1.0385086469	 0.131033
H	-3.6359361576	-2.3374173861	 0.1045043435	 0.103377
H	-3.2551891323	-4.7833464279	 0.7350671932	 0.118167
H	-1.5953629783	-4.6903259517	-0.0285712767	 0.112616
H	-1.0884856277	-2.8990038248	 1.4189115477	 0.255483
