18
gdb 6689	4.93578	0.74381	0.69053	2.7344	78.35	-0.2454	-0.0267	0.2188	1643.4581	0.150345	-347.795806	-347.785901	-347.784957	-347.832722	33.507	
C	-0.0987372891	 1.6292999953	 0.2473780994	-0.374217
C	-0.0101008195	 0.1217259611	-0.0630803997	-0.124293
C	 0.8778089263	-0.6108019868	 0.9627885997	-0.37458
C	-1.3428200499	-0.4799419585	-0.1277009444	 0.12767
C	-2.4483085722	-0.9571185407	-0.1724898298	-0.010891
C	-3.764503198	-1.5794882543	-0.1840159353	-0.412605
C	-3.8385603635	-2.7961902441	 0.7411382204	 0.173597
O	-4.801079886	-3.0740664732	 1.4028408478	-0.231989
H	 0.9014788369	 2.0740448265	 0.2492111228	 0.113698
H	-0.707676316	 2.1497662649	-0.4963242167	 0.124414
H	-0.549752484	 1.7939932307	 1.2307422149	 0.125459
H	 0.4578585371	 0.0098765603	-1.0512121245	 0.105337
H	 1.8824119265	-0.1762993157	 0.9716672816	 0.114048
H	 0.4564089746	-0.5227132157	 1.9688589899	 0.125582
H	 0.9631324552	-1.6738736735	 0.7228120899	 0.122688
H	-4.5612175513	-0.8850214532	 0.1024444341	 0.152338
H	-4.0066378508	-1.9406524456	-1.1959499596	 0.152469
H	-2.9198008562	-3.4224127674	 0.7433353697	 0.091277
