19
gdb 84023	2.16901	1.69114	1.41975	1.3709	70.47	-0.2296	0.0718	0.3014	1024.0079	0.159777	-460.139812	-460.131564	-460.130619	-460.172076	32.768	
O	 0.1852528687	 1.3226651005	-0.0938513407	-0.431195
C	 0.0174394466	-0.0599804437	-0.0765651006	 0.030135
C	-0.4968003981	-0.6858337679	 1.2078991492	-0.023647
O	-0.7470517337	 0.2387723705	 2.2295436971	-0.266523
C	-2.1307655812	 0.5522830289	 2.4096846464	-0.0689
C	-2.7250791097	 1.1543652046	 1.1397598207	-0.222242
C	-2.645991609	 0.1471605203	-0.022627937	-0.272492
C	-1.3680643796	-0.6758361223	-0.0258242627	 0.296146
O	-1.4793833369	-1.9470317485	-0.6159727531	-0.459553
H	 0.209912831	 1.5957865289	 0.8346857911	 0.292428
H	 0.7664786452	-0.609887369	-0.6423720986	 0.095608
H	-0.0951794779	-1.6363475609	 1.5490667958	 0.106031
H	-2.6809322806	-0.3536644006	 2.705518559	 0.100706
H	-2.1624034388	 1.2596018219	 3.2428050546	 0.110166
H	-3.7679858229	 1.4377395191	 1.3187821622	 0.100303
H	-2.176752106	 2.0673938237	 0.8907513349	 0.115757
H	-3.4631722717	-0.577587102	 0.0720415495	 0.111511
H	-2.7787843332	 0.6593219386	-0.9830495174	 0.102351
H	-1.4574594724	-1.8284643019	-1.5726493603	 0.28341
