16
gdb 67350	2.96823	1.93023	1.35581	3.9018	68.88	-0.2336	0.0065	0.2401	914.8131	0.126824	-434.022248	-434.015274	-434.01433	-434.053212	28.49	
N	 0.1567132973	 1.4384867541	-0.0009279296	-0.62251
C	 0.0541843174	 0.0313849571	-0.0039343634	 0.264268
C	 0.0165071209	-0.7982313847	 1.3219717356	-0.062731
N	-1.446965633	-0.4541261248	 1.4801507815	-0.348902
C	-1.3014794224	-0.8311943407	 0.0311497104	-0.113614
C	-0.2966930641	-1.980922177	 0.3640501881	-0.012256
N	 0.7748948236	-2.0389396324	-0.6218084512	-0.350327
C	 0.9462077474	-0.7114572295	-0.9943127291	 0.39053
O	 1.5848262797	-0.2582677657	-1.9125698748	-0.369846
H	 0.2725621298	 1.7939596166	-0.9432088189	 0.244736
H	-0.6407619471	 1.8700410756	 0.4505919004	 0.246756
H	 0.7291214378	-0.7559338309	 2.1473189608	 0.093623
H	-1.9299887668	-1.2031968557	 1.9876582493	 0.208941
H	-2.1403418532	-0.8170943259	-0.6685531546	 0.085331
H	-0.6413808088	-2.9337667804	 0.7615104914	 0.094442
H	 0.8350321514	-2.7636745657	-1.321768046	 0.25156
