17
gdb 80810	2.20104	1.48721	1.44252	3.6627	75.04	-0.2245	0.0079	0.2324	1037.2033	0.135177	-417.931898	-417.923404	-417.92246	-417.964819	32.003	
C	 0.0431718136	 1.5173888205	-0.0426725614	-0.34717
N	 0.0431168059	 0.0522893133	 0.0174545797	-0.136013
C	-1.1131617377	-0.7202042708	 0.630079328	-0.076888
C	-0.1295329937	-1.9241585877	 0.6794640636	-0.249436
C	 0.6294442692	-0.6772243615	 1.2158416615	 0.194255
C	 2.0054223758	-0.5580939315	 1.6217199141	 0.143947
N	 3.0960390393	-0.442438908	 1.9895813105	-0.348332
C	-0.6702793784	-0.3991572208	 2.0828949842	 0.113556
O	-0.9585587098	 0.8628273468	 2.5898511544	-0.418616
H	 1.0659870222	 1.8361176319	-0.2690533033	 0.131975
H	-0.5825112994	 1.8051824114	-0.8940795966	 0.123133
H	-0.3064449578	 2.03983402	 0.849639628	 0.136496
H	-2.1165743074	-0.6888180289	 0.2077390845	 0.101069
H	-0.3355139314	-2.728087388	 1.3864723283	 0.111806
H	 0.2165850073	-2.2652905753	-0.2927578788	 0.133105
H	-0.8811529514	-1.1837383454	 2.8229750646	 0.087684
H	-0.5615729564	 0.9421920639	 3.4634619987	 0.29943
