18
gdb 80823	2.0168	1.84403	1.68625	4.7867	71.55	-0.233	0.0226	0.2556	961.5145	0.148012	-439.09942	-439.091164	-439.09022	-439.131752	32.097	
C	-0.0499563375	 1.5378061446	 0.0431945925	-0.50084
C	-0.035327081	 0.0342364071	-0.0307417199	 0.138783
C	 0.3495102387	-0.8135237325	-1.2946702268	-0.26517
C	-0.3073139381	-1.9509106861	-0.4758254828	-0.07352
N	 0.6512040852	-2.0496857676	 0.6436586677	-0.320018
C	 0.7775766828	-0.7141664726	 1.0484777202	 0.417465
O	 1.3548851073	-0.2768395857	 2.0092387802	-0.375641
C	-1.3220694145	-0.8597798584	 0.0096958257	 0.114359
O	-1.927619662	-0.9733909302	 1.2662383792	-0.431447
H	 0.9659962088	 1.9393899004	-0.0207708059	 0.132192
H	-0.6446605484	 1.9724218969	-0.7663656355	 0.107979
H	-0.4709642316	 1.8648123712	 0.9984374649	 0.143132
H	-0.2144621006	-0.5232080634	-2.1839016274	 0.104733
H	 1.4099629329	-0.9308580317	-1.5207033072	 0.119135
H	-0.5940372937	-2.9106416169	-0.9023647548	 0.077045
H	 0.5046198986	-2.7347427505	 1.3720741507	 0.247492
H	-2.0369154324	-0.5731879625	-0.7725578232	 0.074515
H	-2.7517232045	-1.4611697521	 1.1748651426	 0.289807
