18
gdb 37702	2.74586	2.26572	2.0793	1.4467	72.37	-0.2196	0.0858	0.3054	797.2762	0.152623	-401.921282	-401.915692	-401.914748	-401.950811	24.978	
C	-0.0382978925	 1.5555348036	 0.0085336245	-0.233068
C	 1.4678541611	 1.8188121192	 0.0404608272	-0.080868
C	 2.1743047511	 1.3697722649	 1.3384378072	-0.068182
C	 2.7884564682	 0.1788013001	 0.6467516967	-0.06688
C	 2.0740969448	 0.5544725016	-0.669197599	 0.07864
O	 0.9887656278	-0.2936681835	-1.0102808394	-0.267725
C	-0.0124517641	 0.0136300943	-0.0242488529	 0.063625
C	 0.4744162903	-0.5146892001	 1.3310594212	-0.154135
N	 1.7995263646	 0.0093421283	 1.7006194989	-0.103499
H	-0.5740811304	 1.9510716098	 0.8766156487	 0.100927
H	-0.4949163036	 1.9536974848	-0.9018958876	 0.104039
H	 1.7981493306	 2.7818880627	-0.3475027757	 0.07504
H	 2.585069493	 2.0140462138	 2.1078697392	 0.09221
H	 3.7616772878	-0.2866554638	 0.7605591809	 0.088812
H	 2.7095870844	 0.7049369618	-1.5421526845	 0.081133
H	-0.9468395693	-0.4590066909	-0.3357032256	 0.077146
H	-0.232427004	-0.2504538751	 2.1263717049	 0.101631
H	 0.5537506301	-1.6063056117	 1.2971210953	 0.111152
