18
gdb 16163	4.35632	1.6833	1.43529	0.9798	72.97	-0.2275	0.02	0.2474	926.0779	0.154019	-347.787418	-347.779971	-347.779027	-347.818904	28.771	
C	 0.0869889272	 1.3052893097	 0.3239627477	-0.253323
O	-0.0203492993	 0.0309549372	-0.2816614892	-0.286822
C	-1.2862400876	-0.5357468381	-0.1767522077	 0.430609
C	-1.754376777	-1.1031590274	 1.148136707	-0.338007
C	-1.4524323537	-2.0296811363	-0.0147251437	-0.11868
C	-2.6045244576	-2.4686077173	-0.9154997954	-0.277746
C	-3.1069782938	-1.1660216538	-1.5069880974	-0.072204
C	-2.3729395659	-0.1209885831	-1.1207958045	-0.150617
H	 1.1274305485	 1.6216630799	 0.2187338232	 0.12504
H	-0.5579111848	 2.0504507445	-0.1639634529	 0.107168
H	-0.1733592737	 1.2691202121	 1.3911697173	 0.10853
H	-1.0269130269	-1.1168030956	 1.9536542367	 0.112359
H	-2.782836433	-0.9420521379	 1.4562073046	 0.108947
H	-0.5728556253	-2.6553262005	 0.0737946961	 0.096145
H	-2.2700040741	-3.1611637531	-1.6992517236	 0.11039
H	-3.390095211	-2.9930872812	-0.355952711	 0.110273
H	-3.9829864194	-1.1165651171	-2.1441176184	 0.094136
H	-2.5325288524	 0.910069758	-1.4143326687	 0.093802
