19
gdb 104520	2.66772	1.13521	0.92219	3.0969	76.99	-0.256	0.0503	0.3063	1298.2281	0.156562	-422.967582	-422.95765	-422.956706	-423.002413	36.939	
O	 0.3541503985	-1.1831473066	 1.5863249113	-0.430276
C	 0.1016376266	-0.4319195605	 0.4095552717	-0.127194
C	-1.3628442381	-0.5040432062	 0.0075660005	 0.310053
C	-2.3110090976	 0.2479698728	 0.9394188914	-0.437024
C	-2.1896928045	 1.6990288698	 0.8311708979	 0.32258
C	-2.0728503003	 2.890928345	 0.7268714327	-0.460447
C	-1.694373906	-0.6161795662	-1.4672349352	-0.374223
C	-1.8331017147	-1.8131190228	-0.5576716881	 0.04016
O	-0.8859698608	-2.8479186157	-0.5892524723	-0.428675
H	 0.2065748428	-2.1056120191	 1.3457948073	 0.294505
H	 0.3688714795	 0.6047718722	 0.6383768218	 0.119509
H	 0.7360616979	-0.768059692	-0.4201238085	 0.088921
H	-3.3486788311	-0.0446253483	 0.7360254203	 0.120691
H	-2.0928731031	-0.0648332429	 1.9684764005	 0.148977
H	-1.976794221	 3.945038464	 0.6449794135	 0.195055
H	-2.5977559424	-0.1437437386	-1.8388939983	 0.118392
H	-0.8606954181	-0.6108651085	-2.1620453628	 0.115679
H	-2.8424168695	-2.1385957634	-0.3047596612	 0.088908
H	-0.9990724084	-3.347503663	-1.4041923825	 0.29441
