16
gdb 25877	4.05475	1.07733	0.86021	3.1642	73.62	-0.2469	-0.0433	0.2036	1305.7763	0.123064	-437.954015	-437.945236	-437.944291	-437.988202	30.757	
C	-0.0506105398	 1.4855515959	 0.1528638582	-0.481639
C	 0.0307854566	-0.0164833159	-0.0067287917	 0.294782
O	 1.0839071572	-0.6146770666	-0.1063643784	-0.315265
C	-1.2514304247	-0.7532177066	-0.0382778428	 0.146447
C	-1.4216613401	-2.0955387579	-0.1723191457	-0.086658
O	-2.7524286807	-2.3565345588	-0.1525176983	-0.164766
C	-3.3501448401	-1.1340600298	-0.0038478876	 0.377264
C	-4.8334210181	-1.0993998497	 0.0522227034	-0.491833
N	-2.5081775585	-0.1560908723	 0.0684330524	-0.347465
H	 0.9561131496	 1.9039192319	 0.1609318085	 0.13468
H	-0.6379570835	 1.9216436527	-0.6617705772	 0.147861
H	-0.5764330946	 1.7400303527	 1.0788944938	 0.14786
H	-0.7511795933	-2.9293449355	-0.283014837	 0.174311
H	-5.2086530451	-1.6927663359	 0.8921850465	 0.151635
H	-5.1583945722	-0.0658419349	 0.1714130399	 0.161153
H	-5.2707842527	-1.5098246292	-0.863579154	 0.151633
