16
gdb 44678	3.36927	1.53023	1.16437	3.7486	71.89	-0.26	-0.0124	0.2476	1028.7938	0.125921	-437.875289	-437.868155	-437.867211	-437.90715	27.408	
N	 0.0261242392	 1.1625154339	 0.3266189922	-0.539452
C	 0.0034156291	-0.0480180966	 0.0107659558	 0.425883
O	 0.9967000525	-0.8785153084	-0.4680098043	-0.274272
C	 0.0502860172	-2.0046065299	-0.5993742939	 0.067731
C	 0.3873299959	-3.2233893098	 0.1827465063	-0.098922
C	-0.4537282097	-3.6539280252	 1.1208143137	-0.063128
C	-1.6666271295	-2.8536522736	 1.5152245818	-0.123543
O	-1.4977045903	-1.4629577652	 1.2921598912	-0.256758
C	-1.0744761165	-1.123134119	-0.0049316972	-0.026834
H	 0.9605292853	 1.5602661379	 0.2141381535	 0.229837
H	-0.0722922299	-2.2283705096	-1.6643695289	 0.103449
H	 1.288371147	-3.7688331787	-0.0802841184	 0.110441
H	-0.2839923989	-4.5903057645	 1.6447232231	 0.108928
H	-2.5663735522	-3.2320681803	 0.9979717105	 0.108026
H	-1.8529280355	-2.9526906938	 2.5890716529	 0.130988
H	-1.9260580335	-0.9316656773	-0.6702110885	 0.097627
