23
gdb 94805	2.77287	1.31711	1.07342	1.7984	84.71	-0.2546	0.0705	0.3251	1237.9628	0.205956	-388.294299	-388.285102	-388.284158	-388.328366	35.868	
C	-0.3252137506	 1.4733778826	-0.0226952549	-0.415653
C	 0.0678295602	-0.0015695026	 0.0271354548	 0.040437
C	 0.9261130094	-0.4817302174	-1.1602634132	-0.217348
C	 1.4119898857	-1.8745106509	-0.723050305	-0.298678
C	 1.4815615363	-1.7990673887	 0.8085094766	 0.457052
C	 1.4984059393	-3.00180056	 1.6503481921	-0.253631
O	 2.6896765832	-2.2390657395	 1.4418688133	-0.278633
C	 0.8813465976	-0.4565972435	 1.270948057	-0.098797
C	 1.9792288392	 0.5238064323	 1.7082043782	-0.390175
H	 0.5532935436	 2.1245148132	-0.0691410004	 0.118466
H	-0.9350841493	 1.6797210543	-0.9087466461	 0.111083
H	-0.9109868844	 1.7639299277	 0.8563070004	 0.111462
H	-0.8564672423	-0.5976879962	 0.0188113455	 0.068812
H	 0.3684808683	-0.4983470331	-2.1011917319	 0.092857
H	 1.7761624662	 0.1963524985	-1.3031346273	 0.10123
H	 0.6923402513	-2.6424698565	-1.0286937759	 0.10236
H	 2.3839217218	-2.1550911573	-1.136605282	 0.114431
H	 1.0904569591	-2.965348689	 2.6606900831	 0.107233
H	 1.4894743752	-3.9886634335	 1.1863818227	 0.106413
H	 0.2108735016	-0.6149702856	 2.123076569	 0.065767
H	 2.645915638	 0.7892682257	 0.8810047504	 0.11489
H	 1.5462173395	 1.4469633551	 2.1032717828	 0.109575
H	 2.5957092314	 0.0678376743	 2.4859543806	 0.130844
