16
gdb 42599	3.99582	1.71289	1.6055	3.6559	70.73	-0.2394	-0.0095	0.23	852.6791	0.127818	-400.734622	-400.728855	-400.727911	-400.764615	24.43	
O	 0.0304026294	 0.0107780294	-0.0386939661	-0.317047
C	-0.0111809671	 1.1980857667	 0.048003434	 0.464867
C	-1.1065831664	 2.2921656542	 0.0399329246	-0.200573
C	-0.7428083897	 3.0522816769	 1.3135394815	-0.046085
C	-0.0192300034	 4.3061959462	 0.9745914686	-0.034589
C	-0.1059002377	 4.5333686226	-0.5160219992	-0.255611
C	-0.1114137555	 3.0630630513	-0.9185584859	-0.061104
C	 0.9883708064	 2.3713714792	-0.034246465	-0.141103
N	 0.7698266371	 3.0766183943	 1.2626516567	-0.131133
H	-2.1495685972	 2.096784171	-0.1948587288	 0.090868
H	-1.2087756436	 2.8493831876	 2.2695263413	 0.108731
H	 0.0979686149	 5.1122459585	 1.6889153663	 0.102965
H	-1.0202178146	 5.0598070854	-0.8069781433	 0.115434
H	 0.7576333397	 5.073050875	-0.9174211071	 0.116149
H	-0.1477955117	 2.7929026062	-1.970914726	 0.096045
H	 2.0323551795	 2.2660246256	-0.3174769017	 0.092187
