18
gdb 123482	3.78501	1.07726	1.04531	2.3491	77.24	-0.2263	0.0145	0.2407	1204.5326	0.150532	-398.109806	-398.101974	-398.10103	-398.142943	29.468	
C	 0.3221088856	 0.1557784926	-0.736041786	-0.221644
C	-0.03601207	 1.1663018906	 0.2992873603	-0.219326
N	 0.7813877433	 0.0107085322	 0.6383281607	-0.070179
C	 0.2182112326	-1.0550392486	 1.4877362945	-0.266357
C	-1.2300188906	-1.423136839	 1.3180469139	 0.177693
C	-2.3259487628	-0.9167198813	 1.9951147557	-0.119611
N	-3.4158377066	-1.5547434368	 1.5071312169	-0.176674
N	-3.1199512198	-2.4546477471	 0.5503360798	-0.225851
C	-1.7982889077	-2.3757716088	 0.4350363381	-0.074135
H	-0.4851331634	-0.4831355401	-1.0880716905	 0.117191
H	 1.098685676	 0.3600530826	-1.4682576562	 0.112054
H	 0.4714170478	 2.1264240732	 0.3410922369	 0.11124
H	-1.076077027	 1.1811023522	 0.6197155592	 0.106778
H	 0.8364491798	-1.942632211	 1.3130657095	 0.113704
H	 0.3982018301	-0.7467561193	 2.5235855104	 0.109005
H	-2.401975301	-0.1787034892	 2.7787584309	 0.136799
H	-4.376111164	-1.435507393	 1.7821222765	 0.276156
H	-1.2844702222	-3.0130958091	-0.2709978706	 0.113154
