19
gdb 56655	3.07859	1.15027	0.95231	1.9272	77.5	-0.263	0.0345	0.2974	1281.5135	0.155183	-422.975927	-422.965796	-422.964852	-423.010683	37.472	
C	 0.0681728131	 1.4036001506	-0.3206893347	-0.429519
C	 0.0969442384	-0.0552815556	 0.051893994	 0.03046
O	 1.3903340216	-0.7024779536	 0.0943896988	-0.307921
C	 0.6335086492	-0.602228291	 1.3111225758	 0.338362
C	 1.2056309706	 0.2601773035	 2.4096188258	-0.475828
C	 0.0893014026	-1.9779519284	 1.7611736542	-0.113022
O	-0.2665902111	-2.7721497963	 0.6457667505	-0.414417
C	 1.0491157569	-2.6794032837	 2.6277438306	 0.317923
C	 1.8393355353	-3.2668027409	 3.3171777658	-0.455112
H	 0.8618472079	 1.97273563	 0.1659059872	 0.129731
H	 0.190215212	 1.5130731313	-1.403306343	 0.133472
H	-0.8977453509	 1.8435968531	-0.0495387245	 0.126359
H	-0.6574202963	-0.6647763116	-0.4436565531	 0.104561
H	 1.5392416258	 1.2261117089	 2.0296940742	 0.127404
H	 0.4516155802	 0.4353046778	 3.1852790813	 0.12394
H	 2.0562729099	-0.2407622673	 2.8782476932	 0.147382
H	-0.8376789629	-1.8110620656	 2.3245591454	 0.122005
H	 0.4922675223	-2.7215586181	 0.0461677416	 0.293907
H	 2.5303014153	-3.793597513	 3.9282133369	 0.200314
