18
gdb 62166	2.23715	1.00292	0.79616	4.1749	72.21	-0.2672	-0.0031	0.2641	1458.618	0.144772	-476.239876	-476.229762	-476.228818	-476.276842	34.14	
C	-0.1279391012	 1.7333857158	 0.104871304	-0.391537
C	-0.08855852	 0.2107220829	 0.0752332027	 0.099431
C	-1.4359462797	-0.4439516684	 0.3812280119	-0.095681
O	-2.4889477844	 0.0816830421	-0.4098912969	-0.185324
C	-2.7301817994	-0.5132491222	-1.6036888582	 0.138834
N	-3.5845315367	-0.0120035567	-2.3817287768	-0.440176
O	 0.3099100471	-0.2378973189	-1.236911741	-0.19598
C	 1.5876833084	-0.6203193661	-1.4237767164	 0.171477
O	 2.002877331	-0.9953733525	-2.4776759656	-0.270355
H	 0.8593927055	 2.1454236603	-0.1200676804	 0.126522
H	-0.8435194901	 2.1078152031	-0.6295418813	 0.165362
H	-0.431037342	 2.0854167705	 1.0957033188	 0.127134
H	 0.6340622013	-0.1683024559	 0.812343181	 0.091632
H	-1.3528221999	-1.5304457284	 0.2510888101	 0.117414
H	-1.7053056457	-0.2404166249	 1.4218153509	 0.127415
H	-2.1343957308	-1.4186647324	-1.7689844736	 0.100987
H	-3.666898958	-0.5831270968	-3.2201371009	 0.233439
H	 2.1942162847	-0.5546663514	-0.4986952882	 0.079405
