18
gdb 6299	4.1093	1.09018	0.96191	2.3407	74.46	-0.2464	-0.0163	0.2301	1245.3007	0.14971	-347.800058	-347.790337	-347.789393	-347.835053	34.302	
C	-0.1270947659	 1.6533798537	 0.0251742416	-0.39576
C	-0.0391034005	 0.1135851032	 0.0330289	-0.154833
C	 0.7789614522	-0.4094353611	 1.2315171092	-0.303113
C	 2.2762724351	-0.1433962851	 1.1187526899	 0.381749
C	 3.0977928454	-0.4288101788	 2.3626728956	-0.474457
O	 2.7833199721	 0.2576436267	 0.0955522171	-0.293402
C	-1.3700266702	-0.4904689403	 0.0244843768	 0.304022
C	-2.4683263287	-0.9798218171	 0.039386569	-0.449376
H	 0.8752785955	 2.0840325788	-0.0240391284	 0.136068
H	-0.6969484165	 2.000774004	-0.840102276	 0.127487
H	-0.6300264308	 2.0163056385	 0.9273268918	 0.117392
H	 0.4940787161	-0.1942460667	-0.8745678516	 0.126872
H	 0.4014603634	 0.0085536811	 2.1733600292	 0.122604
H	 0.6541401527	-1.496393409	 1.3272075308	 0.136493
H	 2.8743509295	-1.4243513477	 2.7607628391	 0.13778
H	 4.1607872492	-0.3466214052	 2.1333553779	 0.144789
H	 2.8395717658	 0.2916200688	 3.1478166981	 0.143834
H	-3.4370465844	-1.4143754838	 0.0345406597	 0.191851
