21
gdb 109398	2.97924	1.08353	0.85421	1.3849	80.96	-0.2369	0.0133	0.2502	1380.1977	0.183654	-424.221853	-424.212925	-424.211981	-424.255868	33.895	
O	 0.1373372259	 1.4088076651	 0.3616684953	-0.405977
C	 0.0207614931	 0.0100616278	 0.2170060292	-0.140272
C	-1.386224393	-0.5140892918	 0.0105011369	 0.258223
C	-2.439633595	 0.303707936	 0.0475055918	-0.161252
C	-3.887710267	-0.0853954798	-0.1466539863	-0.137622
O	-4.1738800148	-0.8415246602	-1.3109801635	-0.23472
C	-3.8195027001	-2.2068389015	-1.2430297478	-0.062648
C	-2.3208424425	-2.4755635406	-1.3942796482	-0.191463
C	-1.4643626882	-2.0121604938	-0.2057653238	-0.305072
H	-0.1721335789	 1.8100429515	-0.4576061629	 0.284003
H	 0.6583025923	-0.3616578637	-0.6050443834	 0.094246
H	 0.4383746381	-0.4225600784	 1.1368081912	 0.123077
H	-2.2582597107	 1.3507829208	 0.2758714414	 0.086931
H	-4.255553905	-0.6274401279	 0.7439882579	 0.093342
H	-4.4932829554	 0.8214953428	-0.2374394908	 0.108844
H	-4.18338913	-2.6468429608	-0.297235514	 0.079551
H	-4.3619759635	-2.6932886215	-2.0609028679	 0.102844
H	-2.1874572573	-3.5576412184	-1.5226145967	 0.092871
H	-1.9705233092	-1.9965659768	-2.3156697776	 0.105471
H	-0.448584122	-2.4065827591	-0.3321869147	 0.097144
H	-1.8495925267	-2.4833135295	 0.7112431839	 0.11248
