14
gdb 17935	3.28473	2.56857	2.01842	3.2194	62.89	-0.2197	-0.0591	0.1605	704.4072	0.106821	-378.565421	-378.559149	-378.558205	-378.595319	25.182	
O	-0.2459428249	 1.4989160666	-0.0598984907	-0.45449
C	-0.0720033458	 0.1384926718	-0.0221998509	 0.318914
C	-1.0853530197	-0.9046810251	-0.2274803807	-0.100151
C	-0.7562023855	-1.5629670047	-1.5853189291	-0.186913
N	 0.7298990527	-1.6560790499	-1.5092904668	-0.147415
C	 1.0556144536	-0.8269537717	-0.6010187156	 0.039055
N	 1.4345346004	-1.397619426	 0.7088379994	-0.331973
C	-0.0188628458	-0.9187235883	 1.0051666194	-0.117514
H	 0.5018161257	 1.9248347678	 0.3750882324	 0.291858
H	-2.1095919759	-0.7570999885	 0.1090165497	 0.099682
H	-1.1081915043	-2.5940382254	-1.6871470391	 0.132296
H	-1.1688749952	-0.9802635191	-2.4224545191	 0.11927
H	 1.9990961416	-0.735323134	 1.2530421874	 0.218639
H	-0.3828779868	-0.9795868035	 2.0264327537	 0.118743
