18
gdb 89389	2.82374	1.45635	1.14979	3.5267	71.95	-0.2517	-0.0212	0.2305	1099.5121	0.147256	-439.094536	-439.086198	-439.085254	-439.127267	32.132	
C	 0.0464298663	 1.5257420162	-0.065393613	-0.467056
C	-0.0228702888	 0.0213057938	-0.0050856708	 0.316001
C	 1.1815478858	-0.796716881	-0.2418851665	-0.293119
N	 0.6759763193	-0.6261979156	 1.1602369348	-0.177579
C	-0.1604955599	-1.7086518803	 1.5591833135	 0.368425
O	-0.0672080943	-2.3017542187	 2.6000503687	-0.332395
C	-1.2899525207	-1.9690612784	 0.5430788207	 0.039688
O	-2.4792885862	-2.3375052103	 1.1928862274	-0.441848
C	-1.383472393	-0.6462525488	-0.2223224992	-0.304136
H	 1.0491734014	 1.8822332081	 0.1826676978	 0.133964
H	-0.2063086902	 1.8774144203	-1.0719197205	 0.125819
H	-0.661946241	 1.9750948082	 0.637862992	 0.131794
H	 1.0902102556	-1.777505001	-0.7000964837	 0.131381
H	 2.1394748534	-0.3127864881	-0.4056961348	 0.135472
H	-0.951804902	-2.7798507038	-0.1251415144	 0.09508
H	-2.2044927586	-2.7636297537	 2.0180935523	 0.293593
H	-2.169212026	-0.0385203237	 0.2377457833	 0.129065
H	-1.6251943811	-0.7666612431	-1.2814462076	 0.11585
