17
gdb 91260	3.73562	1.17487	0.96792	4.2269	77.07	-0.2341	-0.0407	0.1935	1188.5335	0.13631	-421.83105	-421.823242	-421.822298	-421.863532	29.982	
O	 0.1759453911	 1.4267863634	-0.1413323663	-0.41719
C	 0.0840011008	 0.0345207046	-0.0496704325	 0.054209
C	-1.3759340175	-0.5511163326	-0.0441663397	-0.269853
C	-0.8562170222	-1.7521466247	-0.9079156157	-0.058318
C	-1.4112128068	-2.2332692785	-2.251537213	-0.365714
C	-0.3663617942	-1.7326778721	-3.293906629	 0.392036
O	-0.3510590718	-2.0295230283	-4.4636127323	-0.327647
C	 0.5198597078	-0.7549169022	-2.5941552446	-0.346514
C	 0.2673179456	-0.8201387048	-1.2848067188	 0.248417
H	 1.0856288552	 1.6923519932	 0.025356327	 0.292545
H	 0.6428785558	-0.3642682691	 0.8090958034	 0.089566
H	-1.816310665	-0.7696086585	 0.9305259982	 0.111355
H	-2.0295356319	 0.1106639415	-0.6172603718	 0.129267
H	-0.5462902877	-2.5769251959	-0.2588536844	 0.093438
H	-1.5548329155	-3.3130901136	-2.3335607561	 0.125433
H	-2.3687409727	-1.7581489397	-2.493680153	 0.135451
H	 1.1493202289	-0.0574299427	-3.1304606813	 0.113519
