23
gdb 52707	3.22225	0.64782	0.60953	1.7625	92.05	-0.2469	0.0401	0.2869	1989.8175	0.201966	-388.274835	-388.262867	-388.261923	-388.314226	41.63	
C	-0.096254697	 1.5200660489	-0.0848489467	-0.499869
C	-0.0172428183	 0.0676665335	-0.0245005931	 0.098698
C	 0.0528489195	-1.1331276449	 0.0452066262	 0.035771
C	 0.1042586012	-2.5974594766	 0.077589977	-0.083128
O	-1.1971985993	-3.1662525288	 0.2422248449	-0.41557
C	 0.8176698391	-3.1549191438	-1.1715507751	-0.180563
C	 0.9234429319	-4.6893659532	-1.2124906054	 0.051094
C	 1.3996039985	-5.1515698623	-2.5961873165	-0.398566
C	 1.8416118234	-5.2412546045	-0.1127639678	-0.390211
H	 0.6652328916	 1.9838068868	 0.5518449597	 0.151192
H	 0.054295353	 1.8891053758	-1.1053216696	 0.147616
H	-1.0737916051	 1.8773958489	 0.2573161775	 0.150686
H	 0.6511239085	-2.9129906955	 0.9738452507	 0.114169
H	-1.7712011145	-2.7541105582	-0.4131133716	 0.280588
H	 0.2691983493	-2.8004161885	-2.0544483173	 0.08731
H	 1.8174903322	-2.7048567286	-1.2297986424	 0.099668
H	-0.0848963882	-5.0862982762	-1.0439026656	 0.087439
H	 2.4026238941	-4.7665330207	-2.8174906414	 0.109692
H	 1.4454658882	-6.2442270655	-2.6530396068	 0.109277
H	 0.7285267655	-4.8022880455	-3.3882393161	 0.107017
H	 1.4825160088	-4.9909811549	 0.8899423247	 0.119066
H	 1.9050261654	-6.3328144602	-0.1717982562	 0.11036
H	 2.8593988522	-4.8445610462	-0.2145205391	 0.108265
