15
gdb 48617	2.70171	1.66735	1.24608	3.7517	65.22	-0.2661	-0.0457	0.2204	981.385	0.112887	-457.782842	-457.7756	-457.774655	-457.815116	27.126	
O	-0.0294604658	-0.1012416815	-0.1699862816	-0.245073
C	 0.044167069	 1.0467930783	 0.1895385702	 0.059096
C	 1.2906788412	 1.8630855077	 0.0722199507	 0.035655
C	 2.6974626366	 1.2832516861	-0.2924971193	-0.270071
C	 2.972159604	 2.7787598195	-0.5560003434	 0.093821
C	 1.5347558676	 2.8972416709	-1.1058691869	-0.27754
O	 2.8411373909	 3.3650749439	 0.7787633053	-0.247381
C	 1.6873039762	 2.7801375507	 1.2329461329	 0.454463
O	 1.1789575924	 2.9901827688	 2.2910383541	-0.347652
H	-0.8282843781	 1.5814129572	 0.6210093051	 0.101622
H	 3.2712831183	 0.7986937307	 0.4989260717	 0.131351
H	 2.6646447285	 0.6697367239	-1.192976447	 0.134527
H	 3.8577428608	 3.1818459435	-1.0395582291	 0.110746
H	 1.395630326	 2.4367611502	-2.084866517	 0.133575
H	 1.0491450624	 3.8727421499	-1.0451467357	 0.132863
