18
gdb 80595	3.48834	1.11542	1.01072	16.3637	77.46	-0.1604	-0.0317	0.1287	1202.7559	0.147882	-438.997483	-438.989119	-438.988174	-439.031035	31.433	
N	 0.0860595324	 1.0435171326	 0.1489550489	-0.404121
H	 0.7423910413	 0.3292366001	 0.5176761862	 0.313587
H	 0.634657708	 1.8450404682	-0.1681051622	 0.32366
H	-0.4258525904	 0.6510713229	-0.6432728588	 0.323564
C	-0.8028972027	 1.4015244355	 1.3140052099	-0.111657
C	-1.5043345139	 0.3139126139	 2.0614114033	-0.056044
C	-0.7038977938	-0.9926712069	 2.0623308877	-0.268715
C	 0.5115343545	-0.234511712	 2.6644544166	-0.174456
C	-0.2913583642	 1.0663393859	 2.6738201735	-0.01118
C	 0.8906890665	-0.6453354771	 4.1831844045	 0.33405
O	 0.3940119287	-1.7107401096	 4.565531467	-0.449798
O	 1.6116770687	 0.2144915725	 4.7048747492	-0.47596
H	-1.3179052991	 2.3364107231	 1.1272308893	 0.132111
H	-2.5601765395	 0.4284494921	 2.2796369709	 0.107598
H	-1.034340945	-1.6989110945	 2.829037399	 0.171941
H	-0.6199334519	-1.5193701535	 1.1011672379	 0.052669
H	 1.4702797509	-0.2258984803	 2.1161019257	 0.058184
H	-0.2351764204	 1.8050878771	 3.4625925013	 0.134569
