20
gdb 114489	2.50532	1.59203	1.11478	3.4651	79.13	-0.2354	-0.0011	0.2343	1142.8347	0.171309	-403.148224	-403.139744	-403.138799	-403.181458	32.313	
C	 0.2200637715	 1.6665538904	 0.1373595197	-0.385835
C	 0.1027647784	 0.1390442963	 0.1073428885	-0.191008
C	 0.6195209482	-0.4804561293	-1.1794661607	 0.054243
C	 0.380099495	-1.9990313187	-1.4526503724	-0.289989
C	-0.164716295	-1.6060649779	-2.8525904879	 0.033895
C	-1.6894844059	-1.4994163782	-3.0762697921	-0.380934
C	-1.5349039902	-0.088620016	-2.4577827888	 0.393513
O	-2.2827534518	 0.7514184647	-2.0434955367	-0.331636
N	-0.1176383304	-0.1518762061	-2.4646713283	-0.153964
H	 1.2529982436	 1.9889495578	-0.0340925924	 0.109846
H	-0.4135205834	 2.1121017527	-0.6333580679	 0.153639
H	-0.0971987575	 2.0611088494	 1.1071731202	 0.112736
H	 0.6791827698	-0.30282924	 0.9311889251	 0.0982
H	-0.9415336348	-0.1540828669	 0.2648166371	 0.109761
H	 1.6709272236	-0.2085185757	-1.323311292	 0.090459
H	 1.2649849212	-2.638189143	-1.4407058422	 0.110879
H	-0.3802660668	-2.4355227468	-0.7972183293	 0.109864
H	 0.4469598361	-1.897480079	-3.708315914	 0.086727
H	-2.0144519754	-1.51950679	-4.1195952808	 0.135279
H	-2.3258381161	-2.1664709235	-2.4901432453	 0.134323
