20
gdb 123123	6.57167	0.47697	0.45245	5.2357	74.12	-0.2459	0.0273	0.2732	2338.7426	0.167883	-477.430964	-477.419674	-477.41873	-477.469869	37.832	
N	-0.0581984406	 1.278664383	 0.1467624711	-0.524234
C	 0.0395635296	-0.0434633801	-0.2001051329	 0.372133
O	 1.0589107632	-0.5458889517	-0.612854327	-0.327412
C	-1.2914068264	-0.7985892119	-0.0954319649	-0.155736
O	-1.0348872832	-2.1667242175	-0.0030492625	-0.221012
C	-2.2060258333	-2.9559622699	-0.0385669245	-0.051627
C	-1.799241174	-4.4187387099	 0.0614190764	-0.183321
C	-2.9941346724	-5.3620888134	 0.0172774666	-0.072312
O	-2.5009710728	-6.6872546654	 0.1325392625	-0.418112
H	 0.7927309545	 1.8180789791	 0.1459686396	 0.262428
H	-0.8334322978	 1.6274151794	 0.6839329556	 0.255801
H	-1.8726574071	-0.4360481477	 0.7719206374	 0.085035
H	-1.884946973	-0.5571406769	-0.9959345569	 0.112837
H	-2.8790311788	-2.6818084412	 0.7934235006	 0.082231
H	-2.7616552936	-2.7676268875	-0.9742648447	 0.085873
H	-1.1165667149	-4.6602664479	-0.7595181471	 0.124627
H	-1.2487317032	-4.5788710203	 0.9942165067	 0.119448
H	-3.6913347855	-5.1241810977	 0.8382662383	 0.08291
H	-3.5469750468	-5.2234127663	-0.9267916509	 0.084832
H	-3.2485230939	-7.2907190662	 0.0946779867	 0.285612
