20
gdb 69598	3.34249	1.28314	1.16455	2.6451	78.69	-0.245	0.077	0.3221	1143.3592	0.17183	-403.123339	-403.115256	-403.114312	-403.155622	32.185	
C	 0.0436083283	 1.4894609121	-0.1220487113	-0.465216
C	-0.0253757829	-0.0064691733	 0.0488782925	 0.335306
C	-1.297299056	-0.7379761992	-0.3861230492	-0.275818
C	-1.2251470091	-2.1292778482	 0.2812592442	-0.346648
C	-0.3266961773	-1.9210082047	 1.5017825065	 0.484407
C	-0.7154638409	-2.2790693408	 2.8719711114	-0.257287
O	 0.2195950551	-3.0781849133	 2.1402182746	-0.287117
C	 0.5620996316	-0.7486016674	 1.2050345733	-0.158789
N	 1.241259622	-0.7351991826	-0.1039964177	-0.375443
H	 0.9993653725	 1.8732649816	 0.2422916235	 0.131117
H	-0.0459349465	 1.7629738121	-1.1798692438	 0.119429
H	-0.7671801266	 1.986188494	 0.4222854247	 0.113338
H	-2.1667485635	-0.1802941847	-0.0188950981	 0.106243
H	-1.392036036	-0.7938245951	-1.4765200842	 0.103663
H	-2.2069385579	-2.5251897278	 0.5494177874	 0.111802
H	-0.7608802318	-2.8683124368	-0.3806682627	 0.119514
H	-0.3002841051	-1.7319971094	 3.7182855114	 0.113674
H	-1.6865586085	-2.7396990445	 3.0520720989	 0.111066
H	 1.0996154924	-0.2705483082	 2.0185757505	 0.087401
H	 1.1248579101	-1.6223862137	-0.588420082	 0.22936
