16
gdb 23361	3.08061	1.61775	1.27813	1.0977	71.67	-0.2392	0.0178	0.2571	981.3185	0.123693	-437.786308	-437.778784	-437.777839	-437.817881	30.249	
O	-0.2469365259	 1.3593957166	 0.0412492271	-0.420383
N	-0.0320436542	-0.0606264342	 0.0652063248	-0.316675
C	-1.1483936567	-0.6562603971	 0.1491474522	 0.40527
C	-1.5072708791	-2.0838065257	 0.0094697831	-0.153319
C	-2.9040155967	-2.2394857845	 0.6433395275	-0.07429
C	-3.2897520452	-0.8931951848	 1.2615976703	-0.282525
C	-2.6108292948	-0.2463912	 0.0231282392	 0.31956
O	-2.9792267782	 0.9957586151	-0.4195953562	-0.476619
C	-2.786095276	-1.6712868683	-0.7318795323	-0.153587
H	 0.6312184747	 1.6912829623	-0.1688149486	 0.309907
H	-0.8573092956	-2.9220423508	-0.1927307176	 0.110172
H	-3.2530468195	-3.2248287375	 0.9220509931	 0.101104
H	-4.3714118889	-0.7390615485	 1.2250986113	 0.114285
H	-2.8979361698	-0.6223019318	 2.247949264	 0.102652
H	-2.1651912061	 1.5007819932	-0.5561476873	 0.302288
H	-3.1356729081	-1.9546310241	-1.7129182706	 0.11216
