21
gdb 61564	3.46366	0.91864	0.77975	2.8891	81.02	-0.2386	0.0295	0.2681	1507.0523	0.18178	-420.406485	-420.396228	-420.395283	-420.44337	36.139	
C	-0.3148648935	 1.3144727051	 0.2044342455	-0.349747
N	-0.0549825529	-0.0962954227	-0.0187441661	-0.080878
C	 0.0227547368	-0.9397360694	 1.1696321169	-0.204324
C	-1.3015460913	-1.0926666397	 1.8874010267	 0.026969
C	-1.3291868692	-1.4423947009	 3.3266465345	-0.243568
N	-1.7555546777	-0.1020168672	 2.8834640609	-0.318007
C	 0.0918365471	-0.6870572307	-1.2540371452	 0.404267
C	 0.0065753398	 0.2117571387	-2.4810026255	-0.501839
O	 0.2865759024	-1.8856966886	-1.375171382	-0.374803
H	-0.2524789202	 1.8755091895	-0.7252950519	 0.139568
H	-1.3087216383	 1.4758479238	 0.6386842667	 0.149536
H	 0.4280815811	 1.7317710159	 0.8979920771	 0.119722
H	 0.3802256788	-1.9138696249	 0.8317181039	 0.157073
H	 0.7654589887	-0.5172920474	 1.8639982147	 0.086976
H	-2.1066407075	-1.4620710536	 1.2555555613	 0.104665
H	-2.1214578165	-2.071964961	 3.7202063872	 0.123303
H	-0.3773719873	-1.5393638657	 3.8439559349	 0.111839
H	-1.006315558	 0.561536128	 3.0702378736	 0.223443
H	 0.7867378356	 0.9795534179	-2.4808426989	 0.137918
H	 0.1397677171	-0.426830774	-3.353311218	 0.149213
H	-0.961317395	 0.7171342667	-2.5535370664	 0.138674
