12
gdb 3682	3.83551	3.31527	1.798	2.0641	51.68	-0.2538	0.0009	0.2547	656.0448	0.09054	-360.514766	-360.508513	-360.507569	-360.544911	22.563	
C	-0.0477371289	 1.5389313796	 0.0011429382	-0.504692
C	-0.0138336671	 0.0456008026	-0.0110244853	 0.063779
C	-0.1173995675	-0.833315201	-1.0400806711	 0.013146
O	-0.0362346302	-2.1056080558	-0.6171386603	-0.175898
N	 0.1315056671	-2.1032028878	 0.7700633811	-0.254095
C	 0.1416333853	-0.8363195776	 1.1021841814	 0.398882
O	 0.2857470993	-0.4291279908	 2.3740128992	-0.415869
H	 0.8790537173	 1.9550701246	 0.4101605662	 0.141797
H	-0.1795442705	 1.9359418268	-1.0084471327	 0.129237
H	-0.8684137706	 1.9136694675	 0.622000748	 0.141801
H	-0.2491354863	-0.7009501966	-2.10359477	 0.149084
H	 0.3711343721	-1.2169281815	 2.9275043552	 0.312829
