19
gdb 69956	3.515	1.44435	1.27634	0.5806	73.72	-0.2434	0.0777	0.3211	1027.5655	0.160833	-423.000832	-422.993461	-422.992517	-423.032206	30.239	
O	-0.1299438354	 1.4562910845	-0.0416436162	-0.473037
C	 0.0134129074	 0.0712160891	 0.0653062031	 0.398771
C	-0.1752404094	-0.792019285	-1.1488661766	-0.357983
C	-1.212824645	-0.8068617304	-0.030457356	-0.094729
C	-1.1365296266	-1.9110265055	 1.0133875619	-0.071666
C	-0.6498194506	-3.2924725964	 0.5341058952	-0.093648
O	 0.7209118681	-2.9551422859	 0.8534419268	-0.297581
C	 0.2915399285	-1.7953107231	 1.6150376524	 0.118062
C	 0.9109166942	-0.4658948519	 1.1805392731	-0.312894
H	 0.6115412791	 1.7941592228	-0.5553677458	 0.282046
H	-0.4767960678	-0.2843286522	-2.0590215219	 0.108403
H	 0.4745834114	-1.6493267157	-1.2852824088	 0.132312
H	-2.1727256121	-0.3556754297	-0.2518225309	 0.092905
H	-1.9889935948	-1.8972847483	 1.69397908	 0.074343
H	-1.0083409233	-4.1322650305	 1.1441916423	 0.09681
H	-0.7800417792	-3.5311221471	-0.5268434623	 0.105761
H	 0.3957528263	-1.9847804555	 2.6900991224	 0.075071
H	 1.9561391929	-0.6015593587	 0.8810419823	 0.108453
H	 0.8864741764	 0.2482868296	 2.0110762888	 0.108602
