21
gdb 1299	6.41007	1.04951	0.95047	1.0262	72.19	-0.2495	0.0835	0.333	1286.4754	0.19265	-312.119017	-312.109494	-312.10855	-312.153443	33.135	
C	 0.0644693688	 1.3893806413	-0.0600008736	-0.2262
O	 0.0306315085	-0.015587745	-0.0686035159	-0.229583
C	-1.2760498715	-0.5354163144	 0.0646675336	-0.059727
C	-1.188270734	-2.0568987651	 0.0554574526	-0.18141
C	-2.546142654	-2.780012023	 0.050877826	 0.039385
C	-2.3440501082	-4.287969916	-0.1510562832	-0.387199
C	-3.3620818873	-2.512095459	 1.3246692867	-0.381369
H	 1.1085254107	 1.694488726	-0.1674870636	 0.124502
H	-0.5176358143	 1.8197032874	-0.8912846465	 0.100227
H	-0.3309400783	 1.8047449446	 0.8813188544	 0.100334
H	-1.7340047935	-0.1662473142	 0.9973725773	 0.084179
H	-1.9136245241	-0.1833284736	-0.7665190122	 0.0797
H	-0.6176748867	-2.3476137779	-0.8347226267	 0.101411
H	-0.597726859	-2.3820500702	 0.9220222105	 0.09897
H	-3.1245199503	-2.4026861946	-0.8054982027	 0.070742
H	-1.7680594959	-4.719298434	 0.6764733868	 0.112378
H	-3.3034617607	-4.8139181407	-0.1964018081	 0.107872
H	-1.8004875706	-4.4974152555	-1.0781991378	 0.110516
H	-3.59494148	-1.4507042913	 1.4513955961	 0.113089
H	-4.312006069	-3.0565968684	 1.3020116309	 0.109807
H	-2.8129656805	-2.8414672763	 2.2152087056	 0.112376
