20
gdb 100133	4.01726	0.71796	0.70055	5.3971	75.99	-0.2742	0.0425	0.3167	1637.2246	0.168488	-440.302857	-440.29225	-440.291306	-440.338696	38.266	
C	-0.0753886863	 1.5962059796	 0.0946529878	-0.431056
C	-0.0284328218	 0.0643120392	-0.0368346396	 0.359508
O	 0.6799121969	-0.5033114123	 1.0629955421	-0.477487
C	-1.4545329442	-0.5099002325	-0.0336070197	-0.116589
O	-2.0058224772	-0.2241154722	 1.2491429806	-0.434621
C	 0.6995515161	-0.3992631164	-1.3074167534	-0.207137
C	 2.1962091927	-0.0273638201	-1.3065207513	-0.353849
C	 2.8951567584	-0.5678581206	-2.4692287381	 0.258201
N	 3.4321908278	-1.0003467075	-3.3967549896	-0.310369
H	 0.927455673	 2.0019592543	 0.2468381302	 0.122437
H	-0.5108386937	 2.060180366	-0.7968449474	 0.111924
H	-0.6875563586	 1.8753925077	 0.9556776417	 0.135076
H	 0.0743770832	-0.4629374379	 1.8144010353	 0.28804
H	-2.0560713787	-0.0575877054	-0.8357729427	 0.095536
H	-1.4033729089	-1.5939878329	-0.2027513905	 0.099177
H	-2.7909364261	-0.7631358657	 1.3764555635	 0.298622
H	 0.6160016982	-1.4882132407	-1.3813861682	 0.121697
H	 0.2124680084	 0.0269024778	-2.190493011	 0.115222
H	 2.3314286473	 1.0589943535	-1.3014014332	 0.149684
H	 2.6620062934	-0.4129158239	-0.3948507564	 0.175984
