21
gdb 73672	2.1771	1.92	1.4579	1.4865	82.3	-0.2403	0.022	0.2623	1025.7964	0.184505	-387.120171	-387.112207	-387.111263	-387.152589	31.886	
C	-0.248837281	 1.516127335	 0.1308494319	-0.446635
C	 0.0259336052	 0.0219127211	 0.004381087	 0.380539
O	-1.2547893283	-0.6376982383	 0.0081141318	-0.291392
C	-1.0897676665	-1.906166128	 0.6198608927	-0.086598
C	-0.1181180431	-1.6506773537	 1.7776802978	-0.228193
C	 0.8593940626	-0.6168714061	 1.1768960874	-0.079342
C	 2.1363316296	-1.2173291024	 0.5267474356	-0.275667
C	 1.9372532068	-1.0085535511	-0.9535827377	-0.075939
C	 0.8208738484	-0.3413622908	-1.2314024681	-0.108336
H	 0.6857021228	 2.0849246226	 0.1183288447	 0.114046
H	-0.87269554	 1.8603887833	-0.6997910009	 0.121474
H	-0.7801788083	 1.7267798803	 1.0640218647	 0.115912
H	-2.0761689016	-2.2577617548	 0.9344562072	 0.103474
H	-0.6715772935	-2.6380689952	-0.089593764	 0.089344
H	-0.6622642272	-1.2134391209	 2.6206095172	 0.103098
H	 0.3799638913	-2.557103531	 2.1323255956	 0.095833
H	 1.1282850299	 0.1364389056	 1.9199196217	 0.072573
H	 3.0449536228	-0.7132952153	 0.8807338019	 0.10662
H	 2.2698208132	-2.2786891364	 0.7730458565	 0.102433
H	 2.6503602751	-1.3683748735	-1.6886028579	 0.093397
H	 0.4668514818	-0.0755322106	-2.2216692352	 0.093358
