14
gdb 3278	5.03828	2.81338	2.14977	3.6373	57.25	-0.2399	-0.0025	0.2374	623.8832	0.114909	-324.565306	-324.559537	-324.558593	-324.594878	21.805	
O	-0.0371954667	 0.0482478532	 0.3969730525	-0.313838
C	-0.0752226882	 1.2054436506	 0.0984307623	 0.382248
C	-1.1846948424	 2.2676911136	-0.0956521451	-0.382645
C	-0.0235098166	 3.2842625076	-0.0220819145	 0.031498
C	 0.5327923887	 3.7129261965	 1.3666080718	-0.250065
C	 1.6360389184	 2.6248234374	 1.1933953812	-0.180674
N	 0.9735413424	 2.152659254	-0.0691754483	-0.13561
H	-1.7039523843	 2.2278799221	-1.0565716285	 0.13754
H	-1.9226347937	 2.2851027793	 0.7094208405	 0.13626
H	 0.0423072842	 4.0252714872	-0.8205481006	 0.088437
H	 0.8900874304	 4.7422242436	 1.4287386362	 0.11594
H	-0.1519811791	 3.5287023358	 2.19858449	 0.116405
H	 2.6346266656	 3.0204082758	 0.9945557277	 0.121597
H	 1.7025414313	 1.8481039134	 1.9588586449	 0.132907
