19
gdb 93359	2.6824	1.59951	1.2198	3.4224	75.39	-0.2283	0.0153	0.2437	1063.4391	0.161668	-419.217174	-419.209192	-419.208248	-419.249698	31.246	
C	-0.3247759629	 1.5968449536	-0.0706191947	-0.403496
C	-0.037445411	 0.0942983109	-0.0084465549	 0.058441
C	 0.5439368514	-0.4382313941	-1.3235935775	-0.181695
N	 1.9453309369	-0.0449161534	-1.4532653512	-0.319824
C	 2.8554703126	-0.3551022894	-0.4744023657	 0.384992
O	 4.0538681701	-0.4111703495	-0.6662470649	-0.371263
C	 2.2378252658	-0.595982301	 0.8784344724	-0.124181
C	 1.8171016656	 0.5939612678	 1.6738341102	-0.236736
N	 0.8192707144	-0.3195254317	 1.1325978093	-0.112271
H	 0.5408971209	 2.1661034429	-0.4205136086	 0.130326
H	-1.1495718225	 1.7832134501	-0.7657926769	 0.115954
H	-0.6197565764	 1.9776519053	 0.9109906186	 0.129277
H	-0.9943850686	-0.418897167	 0.1477337457	 0.090481
H	 0.4364839172	-1.5318631545	-1.3587035398	 0.114787
H	-0.0133152993	-0.0284579345	-2.1708403987	 0.114875
H	 2.3451402463	 0.0142542512	-2.3794908894	 0.247357
H	 2.6530256511	-1.4589747043	 1.3920283818	 0.116017
H	 1.9214301907	 0.5824646654	 2.7557109842	 0.121785
H	 1.9599141778	 1.5688115222	 1.21613542	 0.125173
