17
gdb 88724	3.48818	0.9958	0.84263	3.147	75.68	-0.2524	0.0237	0.2761	1347.8071	0.133319	-421.742144	-421.733195	-421.732251	-421.776342	33.324	
O	-0.1491778234	 1.4744471306	-0.0727116318	-0.414425
C	-0.045775275	 0.0805279222	-0.0573183077	 0.094969
C	-0.4151485728	-0.6682100537	 1.195272311	-0.337357
C	-1.3374759648	-0.6881395174	-0.013634814	-0.061823
C	-2.6330321644	 0.0423786122	 0.0476209575	 0.08087
O	-3.4341023171	 0.0463982553	-1.1342283707	-0.248364
C	-3.9383144874	-0.6587901473	 0.0133186207	-0.176741
C	-4.0441450997	-2.0906655353	-0.0776777442	 0.346412
C	-4.1603916293	-3.2862035934	-0.1298381937	-0.434719
H	 0.5770416286	 1.8325247632	 0.4481726617	 0.290932
H	 0.7490724724	-0.3271240495	-0.681241398	 0.09314
H	 0.1171059493	-1.5762242741	 1.4550162394	 0.11872
H	-0.7304518478	-0.0652226329	 2.0410475453	 0.117444
H	-1.3775658392	-1.6072822592	-0.5870310736	 0.109845
H	-2.6014952764	 0.9997242893	 0.5657850667	 0.106281
H	-4.7860908542	-0.1697879449	 0.4935772534	 0.113299
H	-4.2623979487	-4.3419987852	-0.183929282	 0.201516
