15
gdb 124211	5.03382	1.02998	0.85962	4.8846	71.42	-0.2425	-0.0183	0.2242	1285.4212	0.113614	-450.135998	-450.127819	-450.126875	-450.169917	28.913	
C	-0.010751514	 1.4737988343	-0.1024998841	-0.488871
C	-0.0147000339	-0.0097827256	 0.1983869662	 0.354758
N	-0.0487410355	-0.5706287928	 1.3362167622	-0.465937
N	 0.0254015892	-0.7764831229	-0.9712430497	-0.425234
C	 0.036148982	-2.1315319691	-1.1307237444	 0.571225
N	 0.0767788454	-2.7191825987	-2.301582601	-0.377549
C	 0.0697645612	-4.0345273088	-1.9290690211	 0.051465
N	 0.0287934075	-4.2693607282	-0.6474221634	-0.126187
O	 0.0055177702	-2.9617223564	-0.0937234951	-0.178735
H	 0.8910748955	 1.7589039059	-0.6558037724	 0.148151
H	-0.8768362147	 1.7519880874	-0.7134164689	 0.14812
H	-0.0431999376	 2.0469003691	 0.8245755729	 0.143721
H	-0.0749478895	 0.1284899169	 2.0754008313	 0.225156
H	 0.052113661	-0.2900507624	-1.8534713698	 0.275315
H	 0.0962048832	-4.8491178088	-2.6389081026	 0.144603
