15
gdb 125826	2.505	1.77965	1.05055	3.2213	74.31	-0.2401	-0.0679	0.1722	1076.8841	0.112592	-450.069016	-450.060985	-450.060041	-450.10145	30.568	
C	 0.1009054172	 1.4499863587	 0.0026645173	-0.457529
C	-0.0102156297	-0.0435679099	 0.0338412134	 0.362797
N	-0.0511731208	-0.6563150686	-1.1020942085	-0.129314
O	-0.1495658486	-2.0240005107	-1.1247105305	-0.227295
N	-0.302146085	-2.7838500775	 0.0210151956	-0.170289
C	-0.2214580974	-2.188352038	 1.1666533272	 0.374599
N	-0.2863681699	-2.9714462516	 2.3052678039	-0.5631
C	-0.0214377159	-0.7425455444	 1.3158647934	 0.135245
N	 0.139683327	-0.0936373976	 2.412099819	-0.518742
H	 1.0071602559	 1.7691659332	 0.5258033129	 0.153685
H	 0.1206391949	 1.8024212453	-1.0290269691	 0.142505
H	-0.7411989019	 1.9029716236	 0.5350120857	 0.147419
H	-0.5223297832	-3.9349240938	 2.1037585582	 0.268194
H	-0.8572663696	-2.5867373	 3.0465859401	 0.259639
H	 0.1762648272	-0.7249259887	 3.2141194913	 0.222185
