20
gdb 120388	3.24743	0.84331	0.72859	4.0045	76.64	-0.2432	0.0365	0.2797	1564.1692	0.16974	-440.305709	-440.29564	-440.294696	-440.341421	35.814	
C	-0.1120463778	 1.6195494238	 0.2027491117	-0.407187
C	-0.0084192839	 0.1110527613	 0.024678266	-0.178788
C	 0.6866872109	-0.4950521923	-1.2482845429	 0.035979
C	 1.2430776205	 0.4502846117	-2.3050215488	-0.179637
C	 2.0330508159	-0.2767210962	-3.3876411413	-0.076865
O	 2.4677054285	 0.6909022372	-4.3279380322	-0.41759
N	 1.6764892007	-1.0818328161	-0.3288688773	-0.337857
C	 1.1031535203	-0.6104799009	 0.8283138003	 0.4332
O	 1.3842569003	-0.7374936192	 1.9902073339	-0.366818
H	 0.850367123	 2.1173445228	 0.0563855281	 0.128233
H	-0.8329271181	 2.0571329849	-0.4950964651	 0.120394
H	-0.4472923253	 1.8441732657	 1.2195097575	 0.137579
H	-0.9794963007	-0.3590169629	 0.2088457284	 0.102016
H	 0.0636701741	-1.2611023455	-1.72960423	 0.079533
H	 0.4139268108	 0.9849603483	-2.7835902293	 0.11262
H	 1.8917614792	 1.2006967481	-1.842523675	 0.113428
H	 2.889038655	-0.8032458906	-2.9337202026	 0.082666
H	 1.3956988861	-1.0407564267	-3.8637825647	 0.085275
H	 2.9830337385	 0.2446481856	-5.0061748963	 0.287786
H	 2.4067070419	-1.7648872291	-0.4691304103	 0.246033
