17
gdb 55327	1.99457	1.74058	1.11083	3.4222	72.51	-0.2592	0.0015	0.2606	1105.7396	0.136814	-418.047694	-418.038951	-418.038007	-418.082213	31.96	
N	 0.4183536171	 0.6027454621	 0.8437710242	-0.512142
C	 0.0476440719	 0.1134290968	-0.378079623	 0.395832
O	 0.7160455854	 0.2740470591	-1.3801771822	-0.350733
C	-1.3015367214	-0.6115947722	-0.3920741214	-0.142671
C	-1.6647983128	-1.1602603061	-1.7940583288	-0.226176
C	-1.1112116033	-2.5484113472	-1.3785072188	-0.227758
C	-1.2419775354	-2.1071873142	 0.1113237365	-0.141345
C	-0.2320967668	-2.4988550939	 1.0792997194	 0.265758
N	 0.5722380924	-2.7849332696	 1.8600970753	-0.334146
H	 1.3710416729	 0.9262261687	 0.9209382057	 0.266632
H	 0.0053275211	 0.2324018804	 1.6847033773	 0.265369
H	-2.0465296004	 0.00051546	 0.122472362	 0.103275
H	-2.7442370983	-1.1724554592	-1.9606302982	 0.104696
H	-1.1604298037	-0.6621985825	-2.6203590557	 0.142086
H	-1.6666997121	-3.4418852656	-1.6663534859	 0.115743
H	-0.0643064944	-2.6618220675	-1.6645075661	 0.144206
H	-2.2224221721	-2.3896631192	 0.5055655595	 0.131372
