19
gdb 80972	2.86659	1.44574	1.17202	1.5654	77.18	-0.2335	0.0076	0.2411	1123.1539	0.157947	-422.995908	-422.987373	-422.986429	-423.028479	33.476	
C	-0.0373924579	 1.4679372062	 0.0731089131	-0.515409
C	-0.0174566335	-0.0187433963	-0.00072597	 0.364954
C	-0.0121541599	-0.8765343508	-1.0305656586	-0.262281
C	 0.0715338908	-2.2328691534	-0.3398660572	 0.328904
C	-0.0639783053	-3.5285594826	-1.0825072454	-0.513191
O	-0.8717600401	-2.053428279	 0.7963250477	-0.348381
C	 0.0603320238	-0.9869394794	 1.1805689252	-0.106385
C	 1.2157456098	-1.9456331247	 0.7201459085	 0.162364
O	 1.5137121901	-2.9979159142	 1.5777684217	-0.448478
H	 0.8406450814	 1.8536387046	 0.6064452065	 0.131601
H	-0.049469218	 1.9166315214	-0.9239733632	 0.129645
H	-0.917808316	 1.8283269487	 0.6198216821	 0.134689
H	-0.0164599049	-0.6903506221	-2.0955383276	 0.104813
H	 0.6058060337	-3.5426046079	-1.9480747311	 0.125214
H	 0.195464432	-4.3714397589	-0.4357076022	 0.126118
H	-1.0901025687	-3.6621167144	-1.4382089032	 0.135302
H	-0.0535437727	-0.6315569004	 2.2048943225	 0.077715
H	 2.1527196121	-1.509871973	 0.3673772828	 0.087302
H	 0.6585813532	-3.3344226938	 1.8818630785	 0.285504
