20
gdb 29901	5.22018	0.91428	0.83368	1.957	88.79	-0.1917	0.0471	0.2388	1440.9589	0.172135	-366.034753	-366.025995	-366.025051	-366.068883	32.807	
C	-0.1792713895	 1.4575335716	 0.0193477044	-0.333723
N	-0.0731496923	 0.0156667558	-0.010692323	 0.022581
C	 0.1465403456	-0.7464750825	-1.1288826163	-0.081447
C	 0.2938177955	-2.0570467288	-0.7399725658	-0.299353
C	 0.1630809974	-2.1032997906	 0.6818419715	 0.29896
C	-0.0572885413	-0.8052618523	 1.0926969249	-0.214846
C	 0.2314174698	-3.287817971	 1.5647341301	-0.088876
C	-0.3179547335	-4.629755901	 1.122964713	-0.267571
C	 1.1675670378	-4.4399907273	 1.2598930843	-0.267255
H	 0.7854837145	 1.9360956195	 0.2273137455	 0.135521
H	-0.5441882589	 1.8161305177	-0.9458905855	 0.13811
H	-0.8920075889	 1.7632271195	 0.7901268068	 0.138209
H	 0.1785559593	-0.2894208524	-2.1056511308	 0.111143
H	 0.4586846057	-2.8930887827	-1.4031576442	 0.091215
H	-0.2060653176	-0.399695683	 2.0816069442	 0.107708
H	 0.1044520471	-3.0574176458	 2.6185667605	 0.070159
H	-0.8316844164	-5.2403127391	 1.8578425348	 0.106392
H	-0.7366370126	-4.6871261603	 0.1240134075	 0.113339
H	 1.7599589872	-4.3683503601	 0.3540885686	 0.113402
H	 1.676533431	-4.9200141471	 2.0888861996	 0.10633
