15
gdb 64644	2.30307	1.63355	1.3992	3.5729	74.29	-0.2195	-0.0174	0.2021	993.0248	0.111569	-416.774918	-416.766496	-416.765552	-416.807658	32.248	
O	 0.0580442137	 1.4352048339	-0.0083672891	-0.445782
C	 0.0762254999	 0.0182469428	 0.0076098726	 0.141768
C	 0.6128352611	-0.5219970296	 1.3190039056	-0.169086
C	-0.3169125305	-1.2989085852	 1.8760913983	-0.029712
N	-1.4855678875	-1.3734720796	 1.0939483716	-0.348851
C	-1.3843004947	-0.5135535625	 0.014295418	 0.33682
N	-2.2388479289	-0.1009529762	-0.8265954611	-0.542009
C	 0.8202373675	-0.5281911087	-1.1359962717	 0.351397
C	 1.4401692438	-0.9687739703	-2.0666747215	-0.509375
H	-0.6043858244	 1.6753470118	-0.6732009274	 0.292154
H	 1.6160379071	-0.3452302139	 1.670900116	 0.121475
H	-0.2656112658	-1.871769519	 2.7914356991	 0.133865
H	-2.3743751	-1.6683337905	 1.4645901339	 0.254371
H	-3.1728135405	-0.4788751449	-0.6653826252	 0.21432
H	 1.9826697791	-1.3517801481	-2.8955506891	 0.198645
