20
gdb 74225	2.15192	1.55126	0.98008	5.6211	85.13	-0.2103	-0.0163	0.1939	1224.7571	0.173279	-403.1919	-403.18326	-403.182316	-403.225093	33.632	
N	 0.0196630642	 1.3681254615	-0.2996497132	-0.552725
C	-0.0117520245	 0.0245524225	-0.0154956326	 0.375987
C	-1.1903463815	-0.645633566	 0.0773706257	-0.271213
C	-1.4009674759	-2.0707508639	 0.3074768915	 0.374587
O	-2.5166558442	-2.5588449375	 0.1954263399	-0.363818
C	-0.2380195242	-2.9582958928	 0.7685745843	-0.317038
C	 0.6033687941	-2.3215632235	 1.8900858915	-0.198934
C	 1.6755931073	-1.3262794839	 1.4018769746	-0.189112
C	 1.3515189552	-0.6273467418	 0.0667407568	-0.308637
H	 0.8561125234	 1.8844987243	-0.0847251318	 0.25512
H	-0.8379059652	 1.8909226999	-0.2136364819	 0.259081
H	-2.1153888765	-0.0916827497	-0.066355596	 0.072843
H	-0.700639013	-3.8872055628	 1.1100724309	 0.115307
H	 0.3956066159	-3.2221590718	-0.0888699477	 0.105271
H	-0.0776684791	-1.8181379313	 2.584272316	 0.109344
H	 1.095265064	-3.1111313586	 2.4678928171	 0.100931
H	 1.8532595807	-0.5711628297	 2.1759244284	 0.100036
H	 2.6290100783	-1.848766544	 1.2610056172	 0.102821
H	 1.426698619	-1.3559864769	-0.7468794187	 0.134957
H	 2.1235082919	 0.1219463157	-0.1397811919	 0.095192
