24
gdb 5809	3.06892	1.22562	1.12079	1.3192	81.48	-0.2582	0.0656	0.3238	1245.4645	0.220301	-351.42026	-351.409639	-351.408695	-351.455149	40.087	
C	-0.8221950667	 1.7390806388	 0.6217348206	-0.396719
C	-0.396238138	 0.2997561913	 0.3182781368	 0.120002
O	 0.5398500597	-0.1603174808	 1.2946875358	-0.4218
C	-1.6149862889	-0.6230212129	 0.1611020068	-0.209073
C	-1.3842185505	-2.1019594056	-0.251746998	 0.278216
C	-0.7752658243	-2.9227791799	 0.9017423198	-0.413147
C	-2.7593563641	-2.7014693486	-0.6066770268	-0.400762
C	-0.4669118232	-2.1938281086	-1.4849072535	-0.408425
H	 0.0596664425	 2.3716013566	 0.7543520104	 0.121856
H	-1.4315687234	 2.1551918687	-0.1870030231	 0.114246
H	-1.4168893813	 1.7835783732	 1.543030012	 0.10445
H	 0.1765919204	 0.2996119134	-0.6157847925	 0.09142
H	 0.0843403879	-0.1897719704	 2.1437000447	 0.27493
H	-2.1861788528	-0.6056811599	 1.1024377112	 0.076797
H	-2.2692787231	-0.1582958588	-0.5891800942	 0.090115
H	-1.422804809	-2.8934386717	 1.7865035019	 0.094162
H	-0.6688845318	-3.9734575323	 0.6088473818	 0.101024
H	 0.2063727034	-2.5399611959	 1.1849470987	 0.134068
H	-3.2123200098	-2.1858784821	-1.4610626974	 0.104486
H	-2.6679039097	-3.7619525168	-0.8660594446	 0.106361
H	-3.4549398672	-2.6244977402	 0.2368510665	 0.104771
H	 0.5512928242	-1.864987498	-1.2572780171	 0.124708
H	-0.4059318796	-3.2285919705	-1.8394109806	 0.106084
H	-0.8455235748	-1.582706769	-2.3126150691	 0.102228
