21
gdb 99051	3.96607	0.72838	0.67025	2.257	85.68	-0.245	-0.0145	0.2305	1746.2907	0.178269	-387.089235	-387.078201	-387.077257	-387.126369	39.135	
C	 0.1637731422	 1.5277214059	 0.1284423514	-0.376191
C	-0.0548245086	 0.042094655	-0.1466275898	-0.277736
C	-1.4955473876	-0.4110095117	 0.0476781887	 0.378293
O	-2.3911080801	 0.3736178311	 0.268493133	-0.302448
C	-1.7399784815	-1.9147376188	-0.0317150972	-0.30322
C	-3.2311442101	-2.2974170535	-0.1300642726	-0.156831
C	-3.8289442206	-1.9298106866	-1.5034816071	-0.395512
C	-3.4117525235	-3.7185439339	 0.1596501703	 0.305113
C	-3.5455716462	-4.8929695199	 0.3805601217	-0.449605
H	 1.205137105	 1.805742402	-0.0556162859	 0.111208
H	-0.4785604393	 2.1388200314	-0.5099631504	 0.134762
H	-0.0808511214	 1.7740344462	 1.1651349043	 0.129549
H	 0.2256469263	-0.2126132688	-1.1789399821	 0.125579
H	 0.5914958349	-0.5846331945	 0.4825763115	 0.120085
H	-1.1724028996	-2.3393345536	-0.8689915312	 0.121304
H	-1.2993749869	-2.3560617358	 0.8723215946	 0.136843
H	-3.7601629272	-1.7116466001	 0.6313109086	 0.127212
H	-3.7330118627	-0.855759237	-1.6771898797	 0.134795
H	-3.3158108724	-2.4699894142	-2.3056224195	 0.117625
H	-4.8884683816	-2.1941148281	-1.5444772323	 0.127536
H	-3.677590769	-5.9262403649	 0.5858726135	 0.191638
