16
gdb 6681	6.82017	0.82467	0.77706	4.5672	62.92	-0.2439	-0.0205	0.2234	1397.0702	0.12936	-417.106056	-417.096856	-417.095912	-417.141257	31.368	
N	-0.033733339	 1.2351102397	-0.1987135072	-0.562883
C	-0.2883316642	-0.1262847034	-0.3010823404	 0.450081
O	 0.1250162036	-0.810884467	-1.2204175531	-0.391905
N	-1.0254381847	-0.6461686547	 0.7393482437	-0.333879
C	-1.1924538054	-2.0884513505	 0.8440079405	-0.163731
C	-2.2901626376	-2.6165471316	-0.0995339695	-0.259624
C	-2.3604545915	-4.1243288162	-0.0914731242	 0.153903
O	-3.3455947922	-4.7691064611	 0.1633676347	-0.239356
H	 0.3063000764	 1.6284207513	-1.0632581471	 0.263258
H	-0.7203083498	 1.8081147238	 0.2687439792	 0.248523
H	-1.0951615283	-0.109336765	 1.5877602195	 0.245353
H	-0.2436246166	-2.584230991	 0.6085526271	 0.132904
H	-1.4470706678	-2.318926755	 1.8823274629	 0.112903
H	-3.2701039507	-2.2078039913	 0.159604941	 0.11534
H	-2.0220920883	-2.2979203027	-1.1147796597	 0.151311
H	-1.3994402737	-4.6291967854	-0.3483907174	 0.077802
