21
gdb 121542	6.20464	0.46886	0.45135	1.2087	91.52	-0.2304	0.0549	0.2853	2456.9654	0.180763	-387.041052	-387.030499	-387.029555	-387.079621	36.405	
C	 0.2605297103	 1.3100434119	 0.1524779418	-0.228434
O	-0.0892493532	-0.0279996083	-0.1060182087	-0.226871
C	 0.6670269674	-0.6020644711	-1.147341782	-0.040678
C	 0.1884905134	-2.0462304151	-1.3299739851	-0.353861
C	 0.9084411457	-2.745654129	-2.3865259716	 0.022065
C	 1.5205898545	-3.3010213868	-3.2645245804	 0.101416
C	 2.2372139034	-3.9707870179	-4.3112917513	-0.155079
C	 3.7562329392	-4.0451690796	-4.2764664797	-0.251869
C	 2.9494560388	-5.2857979603	-4.0336995618	-0.250964
H	 1.3157692246	 1.4062994641	 0.4542137196	 0.103896
H	 0.097267494	 1.9529911061	-0.7271404909	 0.104252
H	-0.3734080367	 1.6628139582	 0.969670035	 0.127
H	 0.5358141814	-0.039154293	-2.0858133719	 0.095179
H	 1.7425628691	-0.5883483762	-0.9062829987	 0.093766
H	 0.3027202324	-2.5723448494	-0.3741247066	 0.134294
H	-0.8871886162	-2.0303057338	-1.5444780226	 0.135199
H	 1.7968780838	-3.8781664745	-5.3001470495	 0.107236
H	 4.2803085563	-3.9422368856	-5.220001587	 0.116605
H	 4.2508143201	-3.5846052036	-3.4297491627	 0.124274
H	 2.8953959663	-5.6693967712	-3.0219824946	 0.125589
H	 2.9140865952	-6.0428697149	-4.8090003114	 0.116984
