18
gdb 10119	3.06147	1.15264	0.90571	3.3274	69.77	-0.2576	-0.0386	0.219	1274.7392	0.149896	-384.961657	-384.951959	-384.951015	-384.997768	32.438	
C	-0.0820618285	 1.5873057001	 0.1557312307	-0.394986
C	-0.0033869264	 0.0638422743	 0.0201568679	-0.194048
C	 0.7441102827	-0.4071244625	-1.2468585244	-0.06721
C	 0.9278254255	-1.942700247	-1.234082909	-0.3056
C	 1.8617978506	-2.4433447856	-2.3168428502	 0.155881
O	 2.7617625228	-3.2192888554	-2.1267150887	-0.23555
C	-0.0480123368	 0.0061164325	-2.4749041047	 0.164986
O	 0.3313057956	 0.7511468387	-3.3395688608	-0.246991
H	 0.9180957155	 2.0302950959	 0.2031353064	 0.127659
H	-0.6034232736	 2.0454708761	-0.690807516	 0.132379
H	-0.6164507077	 1.8673523231	 1.0680508639	 0.121937
H	 0.5044298732	-0.3610468152	 0.8933958205	 0.112118
H	-1.0141438674	-0.3668603236	 0.0176132946	 0.10527
H	 1.7202756474	 0.087592386	-1.3027586253	 0.104819
H	 1.3084663454	-2.2835506092	-0.2672578979	 0.129747
H	-0.050361269	-2.4240875672	-1.3900858361	 0.125578
H	 1.6592772189	-2.0409032455	-3.3357298095	 0.090876
H	-1.0691290783	-0.4485239656	-2.5142515313	 0.073135
