18
gdb 17930	3.15374	2.43698	1.98246	0.8432	78.67	-0.2054	-0.0276	0.1778	787.3363	0.154341	-310.57349	-310.566737	-310.565793	-310.603824	27.461	
C	-0.1140058435	 1.6348775482	-0.284340626	-0.515418
C	-0.1015989711	 0.1619637909	-0.011384998	 0.316975
C	 0.4890370921	-0.9947922956	-0.7703043781	-0.114967
C	 1.5492914812	-1.2733294679	 0.3585288097	-0.262946
C	 0.4864381148	-0.5748060939	 1.2174262195	 0.006491
C	-0.4302562167	-1.3691824239	 1.8054783432	-0.101567
C	-1.6560164982	-1.483129962	 0.90330402	-0.263391
C	-1.0525383314	-0.913222812	-0.3941936569	-0.089318
H	 0.8814300589	 2.0758008633	-0.1577619961	 0.119939
H	-0.442182024	 1.8377902713	-1.3093477425	 0.117097
H	-0.7952180385	 2.1614875653	 0.394030184	 0.122439
H	 0.737658636	-0.9987498147	-1.8302050513	 0.08536
H	 1.8026871728	-2.3023239433	 0.6297482911	 0.098128
H	 2.4615177447	-0.7077828224	 0.1343731196	 0.102601
H	-0.1466711948	-2.2068657061	 2.4375889684	 0.092866
H	-1.9439891418	-2.5403966311	 0.8485466035	 0.107628
H	-2.560424884	-0.9238944059	 1.1851410962	 0.105418
H	-1.6814290066	-0.7905490501	-1.2759088963	 0.072665
