16
gdb 41074	4.09837	1.90669	1.69097	0.8294	70.03	-0.2177	0.0529	0.2706	812.7521	0.125943	-400.582031	-400.576384	-400.57544	-400.611623	24.739	
C	 0.0008923237	 1.4711396733	 0.2203730724	-0.155721
O	 1.3785785741	 1.5982114673	-0.3061847224	-0.360354
C	 1.1956103951	 0.3059457594	-0.8586472606	 0.470195
C	 1.9324603846	-0.9508393012	-1.3462942393	-0.216949
C	 1.1398663686	-1.048784117	-2.636051092	-0.101477
C	 0.6121228929	-1.7964575637	-1.4546593233	-0.022798
N	-0.5393484356	-0.8400560754	-1.151474626	-0.184101
C	 0.0406622739	-0.081762655	 0.0216759226	-0.049451
C	 0.2461255855	 0.0883341518	-2.1054055642	-0.096544
H	-0.0442356779	 1.8109442495	 1.2566169542	 0.123722
H	-0.7124744361	 2.0257396955	-0.3960871467	 0.121848
H	 2.869410887	-1.4060822331	-1.0577514808	 0.102254
H	 1.4069733787	-1.3710972852	-3.6336884155	 0.099056
H	 0.5647490927	-2.8562134612	-1.2401027016	 0.099912
H	 0.1548785934	-0.6566132049	 0.9418223288	 0.085678
H	-0.2766672705	 0.85831806	-2.6665614657	 0.084731
