18
gdb 93294	2.1258	1.81652	1.24908	2.3067	71.36	-0.2238	-0.0405	0.1833	1055.0725	0.147495	-439.075765	-439.067363	-439.066419	-439.108902	31.649	
C	 0.5805357919	 1.4761006585	-0.3939839589	-0.373262
C	-0.043911329	 0.1697346995	 0.1069259961	-0.109409
N	 0.0075001397	-0.8705822766	-0.9582385446	-0.308015
C	 1.2760135414	-1.5965929924	-0.7906786595	-0.299077
C	 1.6595785958	-1.4743726075	 0.6883055785	 0.341847
O	 2.5162085756	-2.0712092964	 1.2848468784	-0.305171
C	 0.7119067716	-0.4395375126	 1.2797023436	 0.332163
C	 0.9455621401	 0.1279544709	 2.6095480184	-0.24054
O	-0.0270362949	-0.899133355	 2.4266323363	-0.268779
H	 1.6378839371	 1.3447391934	-0.6482460168	 0.118387
H	 0.0595010644	 1.814219308	-1.2928676492	 0.13056
H	 0.5161648772	 2.258777873	 0.3679714976	 0.117405
H	-1.0863717061	 0.3428300342	 0.3859855565	 0.09829
H	-0.7559350525	-1.5206543547	-0.8035017706	 0.231138
H	 1.1964441069	-2.643341732	-1.0930491284	 0.140622
H	 2.0706808941	-1.1464911885	-1.4016418931	 0.139207
H	 1.8397178327	-0.1723020432	 3.1532127382	 0.135643
H	 0.5470650142	 1.1144605714	 2.8431980577	 0.11899
