18
gdb 48624	3.57015	1.40217	1.20452	2.8679	77.1	-0.2185	-0.0327	0.1858	1048.6071	0.148743	-401.922118	-401.914671	-401.913727	-401.954117	29.372	
O	-0.1748234044	 0.0446065288	-0.3288595866	-0.255488
C	-0.0009672135	 1.139520311	 0.1463170373	 0.052226
C	 1.2880931379	 1.8978506904	 0.074906222	 0.190866
C	 2.578151272	 1.2316084798	-0.4607405462	-0.210022
N	 2.9777101661	 2.5542586735	-1.0756974309	-0.124454
C	 1.5091750559	 2.8609011771	-1.1521286086	-0.204878
C	 3.5839270359	 3.3957236047	-0.0215442872	-0.219904
C	 2.7682339735	 3.4223832008	 1.2592233371	-0.090675
C	 1.6460328223	 2.7062593524	 1.3091732631	-0.112896
H	-0.8356093139	 1.6830653879	 0.6509592867	 0.071348
H	 3.276441651	 0.8286988419	 0.2759190161	 0.110008
H	 2.3847241107	 0.4976092548	-1.245682376	 0.126564
H	 1.0990574255	 2.4623019272	-2.0839379001	 0.121887
H	 1.2309423913	 3.9090654981	-1.0230413762	 0.112547
H	 4.5977991042	 3.0222111076	 0.1721326106	 0.119435
H	 3.7048919556	 4.4122649011	-0.4186552266	 0.11733
H	 3.1121002232	 4.0282804539	 2.0924578487	 0.09876
H	 0.9972890565	 2.6802081589	 2.1796450867	 0.097345
