19
gdb 106836	3.15308	1.10134	0.95539	2.5435	72.55	-0.2371	0.0577	0.2948	1289.372	0.156993	-460.094799	-460.085325	-460.084381	-460.129776	34.156	
C	 0.2497171255	 1.2685360408	 0.2207311605	-0.254793
O	-0.1905285773	-0.0356954174	-0.1333614903	-0.277764
C	 0.5078761006	-0.5919473549	-1.1755656318	 0.288829
C	 1.9314983325	-1.1083689418	-1.0622383667	-0.391037
C	 0.8123252167	-2.0379441541	-1.4635632948	 0.35954
C	 0.4613843038	-3.3581223646	-0.8590618045	-0.171094
O	 1.3066406182	-4.4000502706	-1.3246730742	-0.411868
O	 0.5399217892	-1.8742816003	-2.8683506732	-0.335064
C	 0.121330596	-0.4973494389	-2.6531299433	-0.14245
H	 1.3136761097	 1.2700151002	 0.4919011799	 0.118031
H	 0.0941095248	 1.9850930414	-0.5974317125	 0.114264
H	-0.3445431745	 1.5793246888	 1.082312001	 0.132545
H	 2.6989623625	-0.8364563929	-1.7818824095	 0.113448
H	 2.2676801751	-1.2322817737	-0.0370554624	 0.123513
H	 0.5887629488	-3.3096250988	 0.2264069038	 0.120098
H	-0.5961217392	-3.5813170681	-1.0662385818	 0.099386
H	 1.2186435808	-4.4247127465	-2.2839091597	 0.294081
H	-0.9592612519	-0.3914780724	-2.8012047249	 0.115446
H	 0.6638162087	 0.2074952137	-3.2934783754	 0.104888
