17
gdb 84465	3.81876	1.1876	1.10631	3.7292	81.8	-0.2143	0.024	0.2383	1152.3575	0.13528	-380.825596	-380.81711	-380.816166	-380.859095	31.837	
C	-0.1817652339	 1.3994205847	 0.0475720953	-0.338953
N	 0.1118003224	-0.0130403818	 0.0206829935	-0.017719
C	 0.0678485518	-0.8292471844	-1.0820000007	 0.028738
N	-0.0092816868	-2.0970150194	-0.8768259989	-0.322411
C	-0.0159853852	-2.2826841967	 0.5575650941	 0.161853
C	 1.2222405548	-1.8194840311	 1.3191688224	-0.331413
C	 0.0855182729	-0.8534004191	 1.1810136426	-0.084829
C	-0.821189003	-3.3369866838	 1.0985534228	 0.226333
C	-1.4954419989	-4.2138849191	 1.570360785	-0.399576
H	 0.5937189261	 1.9618612709	 0.5800324387	 0.134527
H	-0.2312608657	 1.7716146904	-0.9788127268	 0.139175
H	-1.1478291652	 1.604578274	 0.5298004845	 0.130759
H	 0.1137618266	-0.3843117411	-2.0711096505	 0.126088
H	 1.361486124	-2.26526516	 2.2967190384	 0.129006
H	 2.1264080302	-1.6483855096	 0.7440403218	 0.121177
H	-0.4859606161	-0.50552574	 2.0343154162	 0.110757
H	-2.092831554	-4.9920893139	 1.9758570415	 0.186488
