20
gdb 108719	3.2289	1.05837	0.83786	6.1897	86.51	-0.2118	-0.0043	0.2074	1409.4726	0.170854	-403.203304	-403.193546	-403.192602	-403.238585	35.049	
C	-0.1383184057	 1.4622897626	 0.0866682014	-0.323845
N	-0.0105283666	 0.0253768976	-0.0373014646	-0.35758
C	 0.6385898591	-0.5761402211	-1.0557903862	 0.411532
C	 1.2414178859	 0.0063227847	-2.1288772355	-0.353065
C	 1.8165533337	-1.0057033932	-2.998005463	 0.404564
O	 2.464891831	-0.8485572402	-4.0147683689	-0.383315
C	 1.4688073414	-2.3973102801	-2.4110893817	-0.089158
C	 2.7070197235	-3.2893051538	-2.3106604517	-0.394101
C	 0.7614593007	-2.0860216817	-1.0767028949	-0.348359
H	 0.8413787955	 1.9482197987	 0.1787271347	 0.1387
H	-0.6472435915	 1.8862645616	-0.7870523264	 0.142657
H	-0.7269843639	 1.6957682038	 0.9755351098	 0.131245
H	-0.3603147663	-0.550182562	 0.7089177606	 0.249842
H	 1.3165098666	 1.0653100053	-2.3319106287	 0.090351
H	 0.7598562158	-2.8600440672	-3.1084147783	 0.096248
H	 3.4197600244	-2.8891385433	-1.5804445031	 0.111628
H	 2.4486322632	-4.3092934057	-2.0084591226	 0.104526
H	 3.2082732481	-3.3258373215	-3.2813299216	 0.141315
H	 1.3506163317	-2.4259867645	-0.2147270229	 0.11511
H	-0.2238273765	-2.5595322599	-0.9893872564	 0.111706
