20
gdb 23010	2.02676	1.3422	0.93927	0.9268	78.2	-0.2346	0.0103	0.2449	1317.6487	0.167983	-440.223273	-440.212931	-440.211986	-440.259438	37.423	
C	 0.0183253054	 1.4863922504	 0.6362263267	-0.375045
C	-0.1034301901	-0.0097296568	 0.3500232796	-0.244128
C	-1.4815105581	-0.4982081351	-0.0407253007	 0.314956
N	-2.396870545	 0.3874655575	-0.160003995	-0.183771
O	-3.6586251428	-0.1373457882	-0.4839959862	-0.395672
C	-1.6117405262	-1.9743254058	-0.2311015682	-0.130642
C	-2.4080187205	-2.5919881616	-1.3661102583	-0.335917
C	-0.9142426996	-2.6216754009	-1.4202175562	 0.125889
O	-0.1906339561	-1.8601777268	-2.3443282301	-0.414182
H	 1.0474554786	 1.733837683	 0.9133353292	 0.103941
H	-0.2551417144	 2.0799307617	-0.239760894	 0.123458
H	-0.6423557843	 1.7902383017	 1.4525154247	 0.122917
H	 0.5836121154	-0.3084694828	-0.4521892243	 0.133387
H	 0.2141113999	-0.5894991771	 1.2289793492	 0.106076
H	-4.194993258	 0.6615774809	-0.5214229109	 0.303603
H	-1.5613467086	-2.5365834523	 0.6993540493	 0.102991
H	-2.9519925115	-3.511079751	-1.1760476236	 0.117092
H	-2.9242767523	-1.9035269688	-2.0256009099	 0.126922
H	-0.4029625146	-3.563083689	-1.2486606531	 0.107485
H	-0.7730329574	-1.187876229	-2.7125918782	 0.290641
