20
gdb 92288	2.53377	1.68923	1.33943	2.1731	77.72	-0.2462	0.0243	0.2705	1038.5175	0.173355	-403.15272	-403.144825	-403.143881	-403.185589	30.713	
C	-0.8770257365	 1.2166798536	-0.0491550866	-0.415943
C	-0.0715267569	-0.0760211406	-0.0791726536	 0.030125
C	 1.2339865604	-0.0707747455	-0.9244470342	-0.261062
C	 2.0358759536	-0.5836265155	 0.2999144818	 0.120965
O	 3.1504694774	 0.2404697847	 0.655996297	-0.232497
C	 2.8763239683	 1.3656530106	 1.361623502	 0.113753
N	 1.8807623295	 1.621189891	 2.0968835674	-0.258286
C	 0.9125765073	 0.5506976806	 2.3222527207	-0.180707
C	 0.7656794741	-0.4726108648	 1.1909506891	-0.07381
H	-0.2573153002	 2.0689867354	 0.2488278733	 0.134968
H	-1.2898206794	 1.4320843716	-1.0409141554	 0.113578
H	-1.7173680235	 1.1520397844	 0.6507672658	 0.115462
H	-0.7277797491	-0.9022158712	-0.3688964536	 0.071676
H	 1.2520392524	-0.7164241051	-1.8053289688	 0.103133
H	 1.5529505573	 0.932021812	-1.2223930084	 0.111114
H	 2.4453622919	-1.589262555	 0.1959638578	 0.090099
H	 3.679916168	 2.0909826222	 1.2414110815	 0.118607
H	 1.2276588263	 0.0250326666	 3.2341449019	 0.114829
H	-0.0547868131	 1.0060512615	 2.5580967728	 0.111168
H	 0.4551577724	-1.4314631864	 1.6147767194	 0.072828
