12
gdb 130706	5.96174	1.07387	0.90996	1.6562	75.66	-0.2499	-0.0925	0.1574	1162.9993	0.078235	-431.65511	-431.647955	-431.647011	-431.686909	26.698	
O	-0.0086722493	-0.0872709416	 0.0033977386	-0.373836
C	 0.0090699509	 1.126248449	 0.0090499988	 0.440645
N	-1.1539392528	 1.8949201673	 0.0280483722	-0.278398
N	-1.2436663812	 3.2269984452	 0.0357094513	-0.206599
C	-0.105147312	 3.8749320806	 0.0238943819	 0.202696
N	 1.1467463368	 3.2836012033	 0.0046078977	-0.237701
C	 1.1957501514	 1.993742414	-0.0023101086	-0.111919
C	-0.1517150482	 5.2996883962	 0.0315376802	 0.28126
C	-0.1689830327	 6.5015437101	 0.0376907355	-0.363126
H	-2.0390291575	 1.4016213254	 0.0372771954	 0.286376
H	 2.1651203752	 1.4987044089	-0.0174335758	 0.153351
H	-0.1871492007	 7.5638102716	 0.0431736427	 0.207251
