22
gdb 75162	4.24064	0.94251	0.8054	0.9679	89.5	-0.2249	0.0344	0.2593	1480.845	0.194657	-367.20129	-367.192357	-367.191413	-367.235238	34.143	
C	-0.1933782197	 1.4541344222	-0.195113482	-0.491135
C	-0.0404717963	-0.0324692905	-0.134957332	 0.335272
C	 0.0500196208	-0.8817373472	-1.1612974839	-0.165433
C	 0.1410655012	-2.3206233935	-0.7199857434	-0.268593
C	 0.446200699	-2.2014257931	 0.7955717559	 0.057468
C	-0.0204521363	-0.7775561281	 1.1840821761	-0.315989
N	-0.2201453699	-3.2351613317	 1.5780444392	-0.061789
C	 0.4852221295	-4.5071031632	 1.701077563	-0.222794
C	 0.394550974	-3.5745492196	 2.8577071793	-0.222716
H	 0.6225973484	 1.9604003212	 0.3368042439	 0.121344
H	-0.2047240789	 1.8180373072	-1.2263316678	 0.120799
H	-1.1242385026	 1.7767923771	 0.2894213605	 0.124216
H	 0.0214384658	-0.5900091227	-2.2063842911	 0.080657
H	-0.8113057028	-2.8481434876	-0.8690011537	 0.112948
H	 0.9063089265	-2.8940800237	-1.2557864363	 0.094481
H	 1.5421588365	-2.2536407743	 0.9299619718	 0.05256
H	 0.6322477804	-0.30891851	 1.9306370456	 0.092123
H	-1.0258053761	-0.8188310691	 1.6264858539	 0.112344
H	-0.1333822363	-5.3989316955	 1.6588410636	 0.114297
H	 1.4552790682	-4.6019268477	 1.2149680435	 0.108129
H	 1.3043856566	-3.0481062931	 3.1429178958	 0.10768
H	-0.2913829582	-3.7728221472	 3.6762830679	 0.11413
