22
gdb 58513	2.6696	1.2948	1.20227	2.4315	80.83	-0.2277	0.06	0.2877	1185.7944	0.192719	-404.302723	-404.293227	-404.292283	-404.336384	36.89	
C	 0.0540792427	 1.5329976456	-0.0855897632	-0.420591
C	 0.060469435	 0.0051303561	 0.0767711419	-0.009141
C	 0.7663657177	-0.4208581736	 1.3705395159	-0.394496
C	-1.3634839045	-0.5695601943	 0.0109882459	 0.412649
O	-2.1718785346	-0.0876887119	 1.0763848394	-0.49003
C	-2.1259274271	-0.5591456124	-1.350919652	-0.234733
N	-2.3998976743	-2.0398099157	-1.2801329855	-0.127646
C	-1.0746196469	-2.6815633523	-1.2926389947	-0.252196
C	-1.5438198778	-2.0885446094	-0.0254843033	-0.068793
H	 1.0757393668	 1.9212229584	-0.137496876	 0.120363
H	-0.4652895699	 1.8446478819	-0.9988467748	 0.115741
H	-0.4290398157	 2.024560943	 0.7671478391	 0.111652
H	 0.615044914	-0.4129059042	-0.772924845	 0.069275
H	 0.2099239868	-0.0696640002	 2.244359489	 0.126649
H	 0.8426322975	-1.5109870332	 1.4381622219	 0.117107
H	 1.7798606146	-0.0104093354	 1.4182845176	 0.106499
H	-2.3001112181	 0.8584887438	 0.9512577072	 0.279798
H	-3.0630498745	-0.0015443373	-1.2955462711	 0.108705
H	-1.5671762636	-0.2596396215	-2.2449600673	 0.093427
H	-1.1287288417	-3.7622053045	-1.3845685083	 0.123086
H	-0.2665740536	-2.222984809	-1.8588809173	 0.1102
H	-1.8321831029	-2.6762004839	 0.8394701106	 0.102475
