19
gdb 66482	2.9536	1.72791	1.38521	1.1813	78.71	-0.2217	0.0774	0.2991	993.6083	0.159444	-385.82199	-385.814553	-385.813608	-385.85323	30.942	
C	 0.070133394	 1.5443497782	 0.038037003	-0.527209
C	-0.0394054458	 0.0555898828	-0.005040031	 0.352501
C	 0.8801644053	-1.0136689026	-0.5597782626	-0.124714
C	 0.4836219435	-1.0233014955	 0.9204244263	-0.160026
C	-0.7930655524	-1.8843352228	 0.8489901035	 0.407258
O	-1.4550909558	-2.0444912034	 2.0570736353	-0.486114
C	-0.5310321379	-3.031139053	-0.162433022	-0.309366
C	-0.2622224531	-1.8721379565	-1.1535745197	-0.058645
C	-1.2167595567	-0.9196331028	-0.338530379	-0.201668
H	 1.0856926977	 1.8501012116	 0.3137148611	 0.119734
H	-0.1583182299	 1.9936538191	-0.9358380874	 0.11711
H	-0.6171334425	 1.9761060434	 0.7749953481	 0.122238
H	 1.908712044	-0.9250373608	-0.8873697929	 0.080314
H	 1.1959557057	-0.9548813299	 1.7326564611	 0.083512
H	-2.2742783118	-2.5227544572	 1.8914413558	 0.278834
H	 0.2677405142	-3.7490090279	 0.0482680204	 0.094225
H	-1.4577761993	-3.5625101571	-0.4122289094	 0.083464
H	-0.3237431992	-2.0031409586	-2.2321918892	 0.065965
H	-2.2415195299	-0.6783992371	-0.6136350717	 0.062587
