14
gdb 66761	2.81388	2.16595	1.55451	5.0602	63.34	-0.2405	-0.0176	0.2229	831.1547	0.101097	-436.595985	-436.589499	-436.588555	-436.626651	26.038	
O	-0.0376534788	 1.3945178366	-0.0666336801	-0.466382
C	-0.0062065515	 0.0240131159	-0.0845848381	 0.254779
C	 0.9398723905	-0.8050408364	 0.8274155884	-0.1768
C	 1.6181950397	-1.5308020054	-0.32044321	-0.116292
C	 0.4949069579	-2.2180371641	 0.3888104412	-0.031872
N	-0.538553906	-1.9636338934	-0.667360453	-0.217392
C	 0.4958772627	-0.9682254897	-1.2296449246	-0.086779
C	-1.29554925	-0.806658602	-0.1068012984	 0.408054
O	-2.4544895402	-0.655739668	 0.0904227773	-0.296454
H	 0.8375386895	 1.7307524496	 0.1545133551	 0.295738
H	 1.2900039101	-0.5703702598	 1.8237779501	 0.107656
H	 2.6447512533	-1.8227483788	-0.4868922705	 0.110153
H	 0.4716796302	-3.0854933521	 1.0342294267	 0.113882
H	 0.4881405425	-0.7666111324	-2.2970738241	 0.101708
