15
gdb 123619	4.1344	1.56532	1.23955	2.4523	70.58	-0.2335	-0.0161	0.2174	956.2235	0.115883	-416.763015	-416.756878	-416.755934	-416.793479	24.681	
C	 0.0770950894	 1.4867312431	-0.0365965528	-0.231329
C	 1.3366011502	 0.6842369297	 0.003195666	-0.189411
N	-0.0090007395	 0.0275924275	-0.0104167117	-0.097522
C	-0.2177807111	-0.6223069044	-1.3479011032	-0.30092
C	 1.0327811064	-0.3027788163	-2.1216045739	 0.137713
C	 1.8891255352	 0.3881201321	-1.3301219143	 0.419616
O	 3.0327397174	 0.6687169089	-1.9454111417	-0.231661
N	 2.9465175009	 0.1336421226	-3.2500621902	-0.142278
C	 1.7557008237	-0.4252427044	-3.3326391423	-0.129453
H	-0.2760747028	 1.9752603019	 0.8676454028	 0.128189
H	-0.1442730428	 2.0127067631	-0.9631512583	 0.123408
H	 1.9370600011	 0.6004366037	 0.9026682164	 0.121016
H	-0.357008262	-1.6972406962	-1.1886295408	 0.129546
H	-1.1384692862	-0.2353241894	-1.7975182351	 0.126898
H	 1.4851064799	-0.9021360218	-4.2645024508	 0.136189
