19
gdb 74430	2.73022	1.43736	1.10279	1.8199	78.4	-0.2284	0.0138	0.2422	1152.5133	0.158292	-423.010774	-423.002157	-423.001213	-423.043578	33.423	
C	 0.0465190192	 1.5282489709	 0.1031834085	-0.481512
C	-0.0116881875	 0.0344646064	-0.0242284985	 0.295977
C	-1.1321505258	-0.6839637289	 0.0540374199	-0.239816
C	-1.0902768399	-2.1693191372	 0.0037338554	 0.326918
O	-1.6786916022	-2.8313276217	 1.0962931563	-0.462862
C	-1.0596495794	-2.9120766506	-1.3228714372	-0.362267
C	 0.1903376349	-2.7651485118	-0.4824961094	 0.051533
O	 1.1790743869	-1.9018181351	-0.9624417929	-0.256556
C	 1.3056840421	-0.6851002044	-0.2415882372	-0.159673
H	 0.7280534263	 1.8281660307	 0.9100271519	 0.129034
H	 0.4282858579	 1.9930207374	-0.8150145028	 0.128186
H	-0.9382470567	 1.9507592854	 0.3190810797	 0.124952
H	-2.0993017392	-0.2061998474	 0.199447646	 0.077677
H	-2.6336234172	-2.8184949208	 0.9667804201	 0.28176
H	-1.5310898979	-3.8888476385	-1.3515879314	 0.110184
H	-1.1023129388	-2.3297736517	-2.2360727495	 0.120308
H	 0.5650046416	-3.6428040256	 0.0402377816	 0.100255
H	 1.9832637219	-0.0637690606	-0.8372420381	 0.111783
H	 1.7978145037	-0.8537774666	 0.7327007176	 0.104119
