18
gdb 82721	2.6644	1.86809	1.37012	2.5018	74.57	-0.2427	-0.0216	0.2211	971.6571	0.149191	-401.94014	-401.932817	-401.931873	-401.971751	29.005	
C	-0.1621694798	 1.5919696419	 0.0367948588	-0.413559
C	 0.0519534135	 0.0834726677	-0.0229576041	-0.088136
C	 0.8574049839	-0.4934448501	-1.1857056609	-0.02261
C	 2.3519945725	-0.0682303919	-1.1771326521	-0.267256
C	 2.5999528928	-1.3754720953	-0.4458381933	-0.019381
C	 1.6117741758	-1.6416941358	 0.6508004	-0.156772
N	 1.2467116393	-1.9254769135	-0.7642164921	-0.150091
C	 0.8049738469	-0.4976414878	 1.1813000345	 0.406741
O	 0.7266737024	-0.1315751064	 2.3272776216	-0.334532
H	 0.7820091829	 2.1367649624	-0.0604112323	 0.123009
H	-0.8328002952	 1.9321137922	-0.7574260646	 0.117402
H	-0.6001239826	 1.859501013	 1.0021747823	 0.14437
H	-0.9243389995	-0.4263016781	-0.0212109829	 0.115315
H	 0.3486776782	-0.4770588593	-2.1480976164	 0.0902
H	 2.7833748289	-0.0933300462	-2.1797681864	 0.120809
H	 2.6332022446	 0.8696567764	-0.6903923807	 0.113127
H	 3.4952281699	-1.9866528032	-0.5109270602	 0.105467
H	 1.7915178758	-2.501384716	 1.2860802586	 0.115896
