22
gdb 13280	6.92592	0.80607	0.76032	0.8798	79.88	-0.2426	0.0887	0.3313	1581.7276	0.199697	-350.194922	-350.185662	-350.184718	-350.229684	33.357	
C	-0.0850196417	 1.6180728697	 0.1972321963	-0.38216
C	 0.3143277064	 0.1590067381	-0.0348704624	-0.181558
C	 0.6586903576	-0.5642938428	 1.2599670492	-0.043161
O	 1.0127648041	-1.8992499948	 0.9555341326	-0.254664
C	 1.3784863133	-2.6574802515	 2.0748204087	 0.180252
C	 0.2723745888	-3.1870415308	 3.0354988236	-0.245226
C	 1.0356162409	-4.5404085506	 3.0672581457	-0.217906
C	 1.7664749601	-4.1157869836	 1.7632830003	-0.250039
H	 0.7253207208	 2.1841720254	 0.6700157522	 0.11548
H	-0.328420515	 2.1143347326	-0.7466278046	 0.116456
H	-0.9636810631	 1.6933025183	 0.8475687547	 0.11545
H	-0.4991325448	-0.38392437	-0.5297477886	 0.105377
H	 1.1796352203	 0.1023101605	-0.7052227016	 0.105724
H	 1.4948832541	-0.0565873577	 1.7726202163	 0.08091
H	-0.2015894359	-0.5398674985	 1.9499316337	 0.08575
H	 2.1700763749	-2.1428950156	 2.6440012458	 0.058953
H	 0.1042097965	-2.6646602629	 3.9801411413	 0.092481
H	-0.6761664911	-3.2746696292	 2.4970516202	 0.10591
H	 1.7197399007	-4.6033985367	 3.9179258842	 0.102981
H	 0.4399003022	-5.454436298	 3.0351022373	 0.100955
H	 1.2287504514	-4.4536303849	 0.8729808406	 0.11203
H	 2.8266350995	-4.3536878571	 1.6530781544	 0.096005
