18
gdb 17055	4.3651	1.33444	1.21932	3.0078	68.51	-0.2354	0.0676	0.3031	1048.0303	0.152885	-384.858365	-384.850419	-384.849475	-384.89086	29.831	
C	-0.1434159033	 1.5551071433	 0.7616027866	-0.430254
C	-0.0971128483	 0.1091015405	 0.303575075	 0.030658
C	 1.045854933	-0.344071844	-0.6523430953	 0.000681
O	 2.00911687	-0.1712900331	 0.460609586	-0.312794
C	 0.8435366663	-0.8871616612	 1.0403176153	 0.031426
C	 0.8749383473	-1.8207100407	-0.2015625811	 0.060095
C	-0.2820054815	-2.7084933678	-0.6138545841	-0.138414
O	-0.310444319	-3.7971628554	 0.3014034207	-0.41755
H	 0.8603909032	 1.9161617294	 0.9923150438	 0.139654
H	-0.5768692579	 2.195387454	-0.0145541532	 0.112164
H	-0.7672774041	 1.6587603367	 1.6561160717	 0.114121
H	-1.0933853034	-0.2718684162	 0.064318837	 0.067217
H	 1.3347499293	 0.0526272425	-1.6274931146	 0.087664
H	 0.8912077263	-1.1472517666	 2.0980085822	 0.094804
H	 1.8175137837	-2.3699339332	-0.2557503913	 0.092485
H	-1.2392427648	-2.1686547158	-0.6135527649	 0.089847
H	-0.1084761598	-3.0583007815	-1.6446185614	 0.089678
H	-0.993963057	-4.4109572109	 0.0169555477	 0.288518
