20
gdb 23370	2.47252	1.19616	0.92541	2.1788	78.93	-0.2434	0.0007	0.2441	1324.2365	0.168986	-440.229992	-440.220107	-440.219163	-440.264686	36.961	
C	 0.9089794487	 0.4087352857	 0.2314473493	-0.38736
C	-0.2381807647	-0.2186663671	 1.040553052	 0.078828
O	-0.5892354337	 0.6400574204	 2.099801036	-0.443663
C	-1.428207592	-0.5539549288	 0.1436152373	 0.342788
N	-2.462586964	 0.1567506443	 0.3840209637	-0.227426
O	-3.5664930071	-0.1176938031	-0.4365847385	-0.407306
C	-1.2237869312	-1.6308614217	-0.8521162957	-0.065596
C	-2.3045640131	-2.6182431997	-1.2724443979	-0.26882
C	-1.8006225653	-1.6138544788	-2.2609501079	-0.265496
H	 1.7383563466	 0.6321221699	 0.9073861917	 0.128044
H	 1.2732567094	-0.2562883323	-0.5571954348	 0.110791
H	 0.5723514205	 1.3445031099	-0.2243954503	 0.123347
H	 0.1177404207	-1.1724219285	 1.4650877185	 0.083151
H	-1.5018043075	 0.9141125123	 1.9261967983	 0.285898
H	-4.2288066824	 0.4959690982	-0.1025017317	 0.308512
H	-0.2326317079	-2.0659492127	-0.7801261329	 0.091313
H	-1.9926196702	-3.6518368527	-1.3717811773	 0.114998
H	-3.2971059234	-2.4720397539	-0.8712535252	 0.142346
H	-2.4568510512	-0.7940794386	-2.5175795607	 0.14066
H	-1.1403868422	-1.9439531626	-3.055076084	 0.114992
