21
gdb 96045	2.5659	1.12464	0.8914	3.837	78.95	-0.2472	-0.0231	0.224	1356.1366	0.181861	-424.240679	-424.231127	-424.230183	-424.276394	34.052	
C	-0.5339342168	 1.4049677365	-0.0111736166	-0.425405
C	 0.0588447935	-0.0020875373	-0.0141514584	-0.006529
C	 1.1357057157	-0.2334691087	-1.0957764406	-0.069649
O	 2.0613122185	-1.1857254256	-0.5752694461	-0.260413
C	 1.6056616758	-1.6403247327	 0.6939292272	-0.083343
C	 0.7801595457	-0.4816088363	 1.2723964621	-0.039568
C	 1.6841294371	 0.5812346851	 1.9335673322	-0.28386
C	 2.2223271236	 0.0796438511	 3.253214679	 0.159771
O	 3.3844252851	-0.1057871232	 3.5070205792	-0.238265
H	 0.2377925098	 2.1722876847	 0.1068768037	 0.124275
H	-1.0510844424	 1.6060480942	-0.9552138793	 0.121979
H	-1.2643739415	 1.5302347324	 0.7950735562	 0.11796
H	-0.7569264627	-0.7146300343	-0.1902655289	 0.083382
H	 0.6989105393	-0.6058243122	-2.0317725584	 0.09881
H	 1.6802085133	 0.6926077753	-1.3268894494	 0.097924
H	 0.9817992633	-2.5423456942	 0.5869812925	 0.087572
H	 2.4842199285	-1.8999877812	 1.2923276188	 0.122852
H	 0.0510045001	-0.8403194612	 2.0080410061	 0.075142
H	 2.5238356616	 0.8462539522	 1.2852853257	 0.13343
H	 1.0989755288	 1.4861260867	 2.1432788799	 0.114281
H	 1.4319579738	-0.1337534411	 4.0130128649	 0.069654
