17
gdb 66512	3.04023	1.91806	1.6721	1.1007	78.53	-0.1878	-0.0298	0.158	864.1392	0.136164	-384.559846	-384.553247	-384.552303	-384.59018	28.289	
O	-0.0285070844	 1.2884504363	-0.1201872827	-0.458114
C	 0.0815120534	-0.0761389244	-0.0347455335	 0.38182
C	-1.0605768515	-1.0507445165	 0.0339418422	-0.144838
C	-0.3260204296	-1.0317666806	-1.2775143991	-0.187933
C	 0.6192874567	-2.1422358608	-0.8966011665	 0.083198
C	 1.9659558743	-2.0759217171	-0.9175522762	-0.140315
C	 2.3906321433	-1.5073238621	 0.4439061147	-0.266263
C	 1.0122244465	-0.9219185534	 0.9175961759	-0.09515
C	 0.0264080433	-2.0491462355	 0.534210188	-0.095188
H	 0.7217280914	 1.6299368212	-0.621120122	 0.288895
H	-2.1030512927	-0.921921051	 0.2874222112	 0.097146
H	-0.5917084584	-0.557018048	-2.2147543313	 0.09327
H	 2.5357610498	-1.8416414791	-1.8117066647	 0.086758
H	 2.7610895927	-2.2127932092	 1.2020654597	 0.107177
H	 3.1882733779	-0.7689608644	 0.294588758	 0.100271
H	 0.9787386817	-0.5297759009	 1.9396943755	 0.069425
H	-0.1494954446	-2.9294631045	 1.1478516206	 0.079839
