18
gdb 7636	4.75404	1.16454	0.98714	3.1673	68.65	-0.2411	-0.0187	0.2224	1165.0833	0.151324	-384.950518	-384.941831	-384.940886	-384.984278	31.871	
C	 0.0886620602	 1.4926488679	-0.0969880121	-0.407179
C	-0.0241982841	-0.0265070272	 0.034297614	 0.122948
O	 0.734314	-0.5122134422	 1.1386146165	-0.429342
C	-1.471666483	-0.5051812505	 0.1141309912	 0.013719
C	-2.3234988244	-0.4318776995	-1.1947866865	-0.370096
C	-2.6841135233	-1.9128258933	-0.9785125739	 0.403217
O	-3.4884935152	-2.6464636178	-1.4739008434	-0.288358
C	-1.6822740355	-2.0501007863	 0.1765714195	-0.360422
H	 1.1389206439	 1.7915769831	-0.1476622813	 0.128201
H	-0.4205040591	 1.8568031584	-0.9949309338	 0.12268
H	-0.3678175158	 1.989881963	 0.7683760095	 0.107532
H	 0.4454807144	-0.4972854583	-0.8402204157	 0.085369
H	 0.4012681883	-0.0834350837	 1.9350207879	 0.276748
H	-1.9777831299	 0.0010121423	 0.9444379372	 0.068944
H	-3.1657517915	 0.263642494	-1.2269296537	 0.129295
H	-1.7211238434	-0.2870468412	-2.0995264837	 0.129335
H	-0.7887869809	-2.6169521114	-0.1073052473	 0.13957
H	-2.0783620607	-2.4810110975	 1.0993702856	 0.12784
