21
gdb 109180	3.95571	0.90071	0.76007	1.7035	81.37	-0.2287	0.0329	0.2616	1494.2583	0.182772	-424.238449	-424.229037	-424.228093	-424.272624	35.438	
O	 0.0968987066	 1.4222844862	 0.0542547706	-0.414711
C	 0.0130218569	 0.0129751434	-0.0381781755	-0.148843
C	-1.420187973	-0.4456168019	-0.0158474613	 0.276828
C	-2.4454088074	 0.4070905526	-0.0007738794	-0.136585
C	-3.888635902	-0.0247079875	 0.0335733995	-0.28676
C	-4.0466484724	-1.4960411541	 0.4341652624	 0.136557
O	-5.3502462315	-1.9923836496	 0.1568638119	-0.442977
C	-3.0518355334	-2.3575579981	-0.3355269279	-0.201818
C	-1.6106559289	-1.9459687598	-0.0068779674	-0.308001
H	 1.0217419837	 1.6712664589	-0.0227732557	 0.288897
H	 0.4877872674	-0.3541942264	-0.9661184047	 0.091998
H	 0.5552169619	-0.4742187637	 0.7929851762	 0.089791
H	-2.2396948648	 1.4721666912	-0.0128519101	 0.103411
H	-4.4531732657	 0.6166611364	 0.7253931959	 0.089658
H	-4.3549255721	 0.1149636551	-0.9530902268	 0.112331
H	-3.8268679435	-1.591032818	 1.5117361666	 0.0621
H	-5.9851960951	-1.4213924926	 0.6011992248	 0.277849
H	-3.219742119	-3.4127454158	-0.0989059937	 0.100267
H	-3.2447841981	-2.2328917749	-1.407993112	 0.104115
H	-0.9190930716	-2.414568191	-0.7201858275	 0.099025
H	-1.3210178579	-2.3424544703	 0.9782083442	 0.106871
