12
gdb 21830	6.07072	1.49421	1.19907	3.3079	58.18	-0.2417	-0.0152	0.2266	902.5937	0.086941	-410.867802	-410.861332	-410.860388	-410.898897	23.057	
O	-0.2866104135	 0.0525282276	 0.0018513269	-0.301634
C	-0.0646842156	 1.2418060793	 0.0083474463	 0.145825
N	 1.1799956989	 1.8105939104	 0.0012765988	-0.394131
C	 2.38032602	 1.1092653081	-0.0139346713	 0.410874
N	 3.5357747946	 1.7737584851	-0.0182396946	-0.305608
N	 4.4326706977	 0.790040762	-0.0332403861	-0.070645
N	 3.9610661961	-0.4440281522	-0.0390634715	-0.183921
C	 2.6377692896	-0.2763430088	-0.026870023	-0.118502
H	-0.8580164381	 2.0121904248	 0.0209707517	 0.091658
H	 1.2548268132	 2.8169868604	 0.0081304019	 0.268598
H	 5.4206448601	 0.9821673155	-0.0398203025	 0.29689
H	 1.9465045272	-1.0987558521	-0.0275453365	 0.160595
