19
gdb 115663	2.41824	0.97263	0.74688	2.6507	80.92	-0.2418	0.0277	0.2695	1548.9347	0.157097	-422.971366	-422.961073	-422.960129	-423.008775	34.997	
C	 0.2098841095	 1.5940528084	-0.223894606	-0.499925
C	 0.0993753822	 0.1547203145	-0.0401005348	 0.070649
C	 0.0130254868	-1.0361364481	 0.1215676915	 0.094295
C	-0.0657893151	-2.4751223462	 0.3051364895	-0.078277
O	-0.2080347757	-2.8883862818	 1.6897699285	-0.282836
C	-1.3175616559	-3.7566696481	 1.3650106933	-0.072872
C	-1.3757684003	-3.227700699	-0.079850842	-0.037691
C	-2.5803404868	-2.3652534719	-0.4009810608	-0.100515
O	-3.7023255558	-3.234985649	-0.468797816	-0.425911
H	 1.0995980787	 1.854856103	-0.8073430921	 0.151225
H	-0.6633954283	 1.9990827933	-0.746886424	 0.148407
H	 0.2843072684	 2.1060476424	 0.7417749603	 0.155823
H	 0.8227896131	-2.9459635437	-0.1395018581	 0.097482
H	-1.0487818373	-4.8156120825	 1.4637057225	 0.099173
H	-2.1981722648	-3.5507353017	 1.983228254	 0.111323
H	-1.2490748917	-3.9830040921	-0.8579888533	 0.0875
H	-2.7080095254	-1.6014437893	 0.3807423644	 0.100719
H	-2.4184152803	-1.8361982416	-1.3527225663	 0.093049
H	-4.4894436612	-2.7003214269	-0.6066664106	 0.288383
