19
gdb 61457	2.74551	1.05075	0.879	2.4415	72.58	-0.2458	0.0566	0.3024	1360.9281	0.15866	-456.36502	-456.355326	-456.354382	-456.400208	35.374	
C	-0.0610242232	 1.5196584666	-0.0633044707	-0.402393
C	 0.0084223181	-0.0132478459	 0.0216843917	 0.021571
N	-1.307586881	-0.6280431478	 0.0848022188	-0.352951
C	-2.0192932713	-0.6331509838	 1.2626240888	 0.461847
N	-3.3370296549	-1.0534728756	 1.1239449924	-0.567703
O	-1.5495134669	-0.2842619837	 2.3310845858	-0.399965
C	 0.7675596513	-0.5923016849	-1.1603372464	 0.082726
C	 0.6052378746	-1.9714819455	-1.6257147415	-0.185601
O	-0.0095674096	-0.8816419301	-2.3309495994	-0.248357
H	 0.9437555503	 1.9553398796	-0.0743788486	 0.113175
H	-0.5804114585	 1.8357811812	-0.9741784957	 0.120023
H	-0.5955175743	 1.9106645133	 0.8049938818	 0.145719
H	 0.5299450711	-0.2871214423	 0.9444623763	 0.121938
H	-1.8046058805	-0.6535556506	-0.7936976612	 0.248026
H	-3.5448576485	-1.7158340477	 0.3916522333	 0.247048
H	-3.7658538299	-1.2720781789	 2.0103722065	 0.259779
H	 1.7128572499	-0.0914025601	-1.3718456815	 0.097305
H	 1.4209385998	-2.4608300803	-2.1548694277	 0.119416
H	-0.0844506766	-2.6298793135	-1.1032638827	 0.118396
