25
gdb 116475	2.79948	1.07406	0.84839	0.2878	94.89	-0.2325	0.0229	0.2554	1486.8047	0.230933	-352.378821	-352.369405	-352.368461	-352.412855	36.873	
C	-0.1292238292	 1.5463031647	-0.1812063149	-0.387766
C	 0.0426125247	 0.0260002042	-0.104616436	-0.191733
C	 0.7076185556	-0.4644632664	 1.1960105648	-0.000656
C	 0.6034780615	-2.0008513133	 1.3321837162	-0.187306
C	 0.8034733336	-2.5433760858	 2.7555148933	-0.195595
C	 2.2009926158	-2.3731374544	 3.3681408141	-0.174028
C	 2.6398672072	-0.9121777812	 3.5888130827	-0.245472
C	 2.9689935879	-0.1656845089	 2.3174279066	-0.086228
C	 2.1402266874	 0.0213460959	 1.2908872646	-0.021638
H	 0.8290172713	 2.0705381995	-0.1086265311	 0.118651
H	-0.598498316	 1.8433250744	-1.1243774971	 0.110591
H	-0.763259491	 1.9095053232	 0.6355634086	 0.113077
H	-0.9416949303	-0.4481716896	-0.1987760019	 0.088502
H	 0.6335290651	-0.3253808473	-0.9617890249	 0.093689
H	 0.1391449611	-0.0310184409	 2.035572029	 0.074076
H	-0.3950397047	-2.3086046967	 0.9958042757	 0.084978
H	 1.3199993971	-2.4729489224	 0.6473421669	 0.091091
H	 0.0674396842	-2.0658096277	 3.4187643796	 0.088305
H	 0.5557374683	-3.6121894106	 2.7544179643	 0.089035
H	 2.212971232	-2.8886328593	 4.3365726677	 0.087994
H	 2.9448609565	-2.8776510793	 2.7383462174	 0.093692
H	 1.8455422044	-0.3860923627	 4.140052708	 0.10318
H	 3.5157502272	-0.9016159097	 4.2457844279	 0.093843
H	 3.9777439661	 0.2343318643	 2.240208996	 0.08104
H	 2.5186417745	 0.5594050298	 0.4234416525	 0.078676
