22
gdb 118981	3.11727	0.96502	0.91567	1.2835	82.65	-0.2466	0.0248	0.2714	1426.0628	0.194051	-404.376136	-404.366465	-404.36552	-404.411193	35.634	
C	-0.0540412295	 1.5757332437	-0.1089124455	-0.381366
C	 0.0077153128	 0.0604020401	 0.1055848316	-0.175612
C	-1.369745427	-0.6009469172	-0.013540292	-0.201169
C	-1.3777050974	-2.1411425541	 0.0568401551	 0.268801
C	-0.7817406267	-2.6684366031	 1.369274933	-0.423239
C	-2.8147687519	-2.702532019	-0.1839544305	-0.151051
O	-2.6851020567	-3.5670378526	-1.3375006723	-0.222852
C	-1.3965121662	-3.4364624347	-1.7326059035	 0.113874
N	-0.601171162	-2.7002647473	-1.0800925408	-0.288414
H	 0.936818082	 2.0309728381	-0.0153336783	 0.111413
H	-0.4393691495	 1.8196411745	-1.1052999505	 0.11388
H	-0.7113012018	 2.0563355268	 0.624908069	 0.109576
H	 0.6811741096	-0.3958447942	-0.6273079934	 0.123319
H	 0.4373163898	-0.1449547494	 1.0931426938	 0.094339
H	-2.0353555856	-0.2160144096	 0.7725624763	 0.088951
H	-1.8221879041	-0.3083833203	-0.9703653048	 0.093986
H	-1.3042601303	-2.2426176777	 2.2332834418	 0.109851
H	-0.8698332961	-3.7581222586	 1.4175340768	 0.116627
H	 0.2782921875	-2.4175988661	 1.445394644	 0.133367
H	-3.1930987908	-3.3011358838	 0.6490076055	 0.114882
H	-3.5437741562	-1.9225100958	-0.4247629414	 0.11248
H	-1.14504336	-4.0073294796	-2.620277664	 0.138356
