18
gdb 63552	3.13492	1.35124	1.1678	2.9231	72.7	-0.2333	0.0251	0.2584	1100.7512	0.146519	-439.077537	-439.068959	-439.068014	-439.110624	32.496	
C	-0.1383894045	 1.5091016043	 0.0330724554	-0.450086
C	 0.002828922	 0.0032919108	 0.0429153633	 0.316847
O	-1.1551247865	-0.6893852168	-0.3245351709	-0.45155
C	 1.34150005	-0.6411544304	-0.3047429237	-0.427168
C	 0.8216998457	-0.6729409972	 1.1060352649	 0.386366
C	 1.4617427565	 0.0021814162	 2.3265650237	-0.260249
N	 1.2786344721	-0.9686944168	 3.4201535738	-0.266934
C	 0.6767089367	-1.9544958688	 2.8996044789	 0.112808
O	 0.3529305335	-1.9377557879	 1.5848007092	-0.23533
H	 0.7765612803	 2.0078412384	 0.364887718	 0.122544
H	-0.3541888822	 1.8623121938	-0.982564527	 0.113452
H	-0.9620204334	 1.822936546	 0.6821618272	 0.133371
H	-1.2955280652	-0.5500894724	-1.2678068981	 0.284082
H	 1.2924079269	-1.578176524	-0.8489982986	 0.128207
H	 2.1981510452	-0.0111851577	-0.5271184575	 0.113534
H	 2.5290989332	 0.2057970192	 2.1820575497	 0.118463
H	 0.9799091361	 0.9503695743	 2.5895454016	 0.121097
H	 0.3782706536	-2.8580812909	 3.41893191	 0.140546
