15
gdb 20902	3.49134	1.91324	1.35975	2.7221	62.	-0.2211	0.0175	0.2385	895.8448	0.120653	-396.02759	-396.020037	-396.019092	-396.060428	26.841	
C	-0.0001163842	 1.5796190698	-0.0170328237	-0.378744
C	 0.0320485607	 0.0507461548	 0.0175300614	-0.157509
N	 0.7421304528	-0.4728759382	 1.1728352851	-0.105411
C	 2.0652558222	-0.8077722919	 1.2977156995	 0.044433
N	 2.3721150353	-1.2189763468	 2.4891709587	-0.221506
N	 1.1816094779	-1.1376158431	 3.1747363207	-0.310951
C	 0.1267460907	-0.6799958578	 2.4170917168	 0.473423
O	-1.0369648908	-0.4952821341	 2.7114584085	-0.43805
H	 1.010581139	 1.9967305237	-0.0616642301	 0.122492
H	-0.5528873415	 1.9239507572	-0.896226047	 0.124653
H	-0.4978824653	 1.9663758628	 0.8758852125	 0.151662
H	-0.9856268498	-0.3454053897	 0.0732008788	 0.148131
H	 0.5041431424	-0.3551788901	-0.882472134	 0.117883
H	 2.7706129825	-0.7427277194	 0.4835196571	 0.148558
H	 1.1344393882	-1.4095144272	 4.1406278156	 0.280935
