20
gdb 117449	5.58441	0.57282	0.52622	3.0645	78.18	-0.2504	-0.0295	0.2209	2076.2613	0.168335	-440.340297	-440.329566	-440.328622	-440.379062	36.216	
C	-0.0692885339	 1.584777503	 0.0100660869	-0.388037
C	 0.0089911463	 0.0564554359	 0.0025049431	-0.164157
C	-1.37184878	-0.6006757417	 0.0129289961	-0.283155
C	-1.3352668746	-2.1164335511	 0.0054618742	 0.352445
O	-0.3026384627	-2.7504212561	-0.0092878624	-0.30662
C	-2.68442455	-2.8271449304	 0.0168313494	-0.224358
N	-2.4865224861	-4.2525634804	 0.0070304293	-0.281185
C	-3.519660076	-5.127650353	 0.0053988801	 0.153927
O	-4.6910861679	-4.8076224166	 0.0143787527	-0.330001
H	 0.9302749991	 2.0291526744	 0.0023395406	 0.11985
H	-0.6074698165	 1.9618478125	-0.8668254996	 0.115984
H	-0.5903184846	 1.9539936615	 0.9005526342	 0.115973
H	 0.5615514817	-0.290043479	-0.8771890195	 0.115313
H	 0.5784407875	-0.2977778959	 0.8682500839	 0.115233
H	-1.9525962274	-0.2825579333	 0.8908358365	 0.128042
H	-1.9693753765	-0.274625036	-0.8507170447	 0.128159
H	-3.2558286647	-2.5068536303	 0.8992551319	 0.145334
H	-3.2757626419	-2.4980883477	-0.8490315204	 0.145576
H	-1.5244380996	-4.5614789024	-0.0040887112	 0.263025
H	-3.1746338223	-6.1801711833	-0.0050891712	 0.078652
