15
gdb 127023	5.39637	0.99465	0.84876	2.8936	70.6	-0.2519	-0.0862	0.1657	1312.5299	0.112718	-450.110337	-450.102398	-450.101453	-450.143633	27.971	
C	 0.0250110966	 1.4995105832	-0.0678701557	-0.394396
C	-0.0060677236	-0.0129485874	 0.0177830938	-0.044444
O	 0.666758503	-0.5168800129	-1.1629227471	-0.241084
C	 0.769841203	-1.8215251089	-1.3194121904	 0.522918
N	 1.3985444814	-2.2244465598	-2.4258946321	-0.278468
C	 1.4638268336	-3.5398447079	-2.5175596336	 0.116776
N	 0.9744387246	-4.4246438331	-1.6336870764	-0.185093
N	 0.3680971035	-3.9399470119	-0.5690214878	-0.055518
N	 0.2511030523	-2.6392929784	-0.3861653694	-0.268264
H	 1.0538566288	 1.8683117937	-0.092942527	 0.137696
H	-0.4908208828	 1.850641605	-0.9655284006	 0.137698
H	-0.4743310406	 1.9245200766	 0.807480067	 0.130212
H	 0.5110862597	-0.3888978947	 0.9050043778	 0.135679
H	-1.0262197345	-0.4064978542	 0.0365270914	 0.135702
H	 1.9598913551	-3.9633578392	-3.3871187999	 0.150587
