21
gdb 108518	2.35207	1.55672	1.15996	1.9101	77.42	-0.2465	0.0686	0.3151	1135.0616	0.183842	-424.212095	-424.203491	-424.202547	-424.24563	32.791	
O	-0.0644692473	 1.4168978018	 0.188453066	-0.427529
C	-0.0145923109	 0.0050962053	 0.0228443653	-0.172173
C	-1.4389052065	-0.5110944742	-0.0011803191	 0.377961
C	-2.2535466116	-0.4431261696	 1.3208842045	-0.283181
C	-2.6576217499	-1.9328939169	 1.1322730784	-0.238078
C	-1.6392717625	-2.0579621203	-0.0413681058	-0.086995
C	-2.1575797899	-2.3545436805	-1.4629476731	-0.095049
O	-2.0017141922	-1.1443322408	-2.1978451211	-0.248961
C	-2.1882009538	-0.0784468675	-1.2763303743	-0.150871
H	 0.8332042951	 1.7588766139	 0.145849261	 0.288585
H	 0.4855501774	-0.272055971	-0.9193564149	 0.0945
H	 0.5398468063	-0.4708222748	 0.8481613653	 0.078451
H	-1.6142821789	-0.2830134666	 2.1926552508	 0.102271
H	-3.0621332495	 0.2912324587	 1.353833176	 0.10142
H	-2.4819139399	-2.5870389549	 1.9888687606	 0.10085
H	-3.693373635	-2.0706560209	 0.8075261228	 0.100621
H	-0.7510266069	-2.6421413079	 0.2109386206	 0.068403
H	-1.5949548423	-3.1320724755	-1.987561874	 0.104241
H	-3.2172974907	-2.6568724585	-1.435323617	 0.08552
H	-3.260101062	 0.0752381652	-1.0679396278	 0.07938
H	-1.7860328192	 0.8336822153	-1.7219125341	 0.120635
