19
gdb 38268	3.04379	1.7214	1.38895	1.9742	74.6	-0.2328	0.0758	0.3086	972.5696	0.161417	-422.956031	-422.949227	-422.948283	-422.986818	28.67	
C	-0.0302800013	 1.6451870546	 0.1083712777	-0.271715
C	 1.4252491545	 1.1697477312	-0.0173215396	-0.025195
O	 1.112873602	 0.040851397	 0.9161501647	-0.369519
C	-0.0184861282	 0.093901571	-0.042501774	 0.43111
C	-1.1606386023	-0.8474217642	-0.2486271887	-0.360431
C	-1.6806906543	-0.4670469057	-1.6662411306	-0.217168
C	-0.5611430153	-0.3291467138	-2.7234704312	-0.068904
O	 0.4616773045	 0.618322327	-2.3856154552	-0.265974
C	 1.0156511663	 0.2077128875	-1.1631791505	 0.107151
H	-0.3141937056	 2.0056520837	 1.0977093313	 0.102348
H	-0.441345301	 2.2359030025	-0.7105575059	 0.112204
H	 2.3593555624	 1.7020761407	 0.1582390767	 0.095022
H	-0.7930956817	-1.8806392269	-0.2398874093	 0.114952
H	-1.954509797	-0.7615941193	 0.4998573562	 0.109156
H	-2.3914828034	-1.2209183637	-2.020902787	 0.106501
H	-2.2259039968	 0.4814204942	-1.6048644139	 0.116603
H	-0.0985768167	-1.3151860887	-2.8965497222	 0.094382
H	-0.9838029639	 0.0128392502	-3.671586157	 0.113276
H	 1.6752693782	-0.6632955072	-1.2665395115	 0.0762
