21
gdb 96602	2.25279	1.44021	0.99646	0.8853	74.49	-0.2403	0.0709	0.3112	1224.1479	0.183593	-461.335422	-461.326621	-461.325676	-461.368789	33.94	
O	-0.2524187793	 1.5378146309	-0.2871448595	-0.436813
C	 0.0202809396	 0.1572763024	-0.0452349758	 0.100379
C	-1.3655417224	-0.4795772598	 0.1554628798	-0.210486
C	-1.541376042	-1.9648937886	-0.1674194839	-0.081135
O	-0.910666827	-2.8941027236	 0.6914213932	-0.25627
C	 0.5052955974	-2.901467247	 0.7660801759	-0.064646
C	 1.2871542878	-2.7358025283	-0.548989161	-0.103018
O	 1.7812578778	-1.4306381008	-0.7932370564	-0.245895
C	 0.8697580267	-0.4280120501	-1.1983842275	-0.106011
H	 0.5787731097	 2.0207334911	-0.2326769598	 0.281438
H	 0.6251816311	 0.0477462114	 0.8664389424	 0.079318
H	-1.7105223579	-0.2799407078	 1.1752576981	 0.111541
H	-2.042774696	 0.0632020836	-0.5165445208	 0.116587
H	-2.6064677755	-2.2041703468	-0.0864370817	 0.110684
H	-1.2635181039	-2.1523579311	-1.2149765736	 0.086354
H	 0.873191591	-2.138805684	 1.4697234675	 0.0995
H	 0.7463219912	-3.879921401	 1.1954264352	 0.10788
H	 2.1868390696	-3.3560547237	-0.484712154	 0.112804
H	 0.6965142788	-3.1096336118	-1.3991233264	 0.104
H	 0.2380251582	-0.7702271433	-2.0322480568	 0.096495
H	 1.4962666452	 0.3828076482	-1.5864463249	 0.097294
