14
gdb 20454	6.3479	1.4199	1.26258	1.7409	63.28	-0.247	-0.0011	0.2459	928.5911	0.110874	-374.875938	-374.869474	-374.86853	-374.90722	23.611	
C	 0.9991097881	 1.1058216685	 0.008728734	-0.229685
N	 0.2957974044	 0.1374662291	-0.838697598	-0.311436
C	-0.3498615394	 0.6000571955	 0.4019855666	-0.13482
C	-0.5292700472	-0.4155703997	 1.456587516	 0.354622
N	-1.3324028337	-0.2118834695	 2.5048867056	-0.291818
N	-1.2057037226	-1.3331574447	 3.204729042	-0.071785
N	-0.3960331794	-2.2576144733	 2.7081494242	-0.19501
C	 0.0498454183	-1.6932728592	 1.5860738844	-0.130846
H	 1.8798310494	 0.7170316017	 0.5116806718	 0.125657
H	 1.076187938	 2.1399974494	-0.3169314754	 0.118397
H	-0.1178801675	 0.5994121588	-1.6433845654	 0.239113
H	-1.1686413358	 1.3108902781	 0.3282189436	 0.099339
H	-1.7110756212	-1.4786214836	 4.0633784903	 0.291606
H	 0.7319200786	-2.2049602911	 0.9280125206	 0.136666
