18
gdb 9957	3.21451	1.48654	1.3361	3.086	63.94	-0.242	0.0502	0.2922	1005.0652	0.151729	-422.050851	-422.0417	-422.040756	-422.084261	33.628	
C	-0.035364733	 1.4664321593	-0.0317726927	-0.420592
C	 0.0242094433	-0.0434380959	 0.0323780842	-0.123964
C	 1.3368737339	-0.7950191871	-0.1520360299	-0.007211
O	 2.5426412431	-0.0765981178	-0.2093232722	-0.430149
C	 0.6817877312	-0.7549119797	 1.201311099	 0.367428
O	 1.3433771456	 0.0104203413	 2.1737592996	-0.481468
C	 0.0602774633	-1.9801559811	 1.8248861622	-0.107697
O	 1.0199049467	-2.7516155883	 2.5187652507	-0.420938
H	 0.7764202355	 1.9212589953	 0.5394087615	 0.124278
H	 0.0192343665	 1.8293987108	-1.0649054802	 0.110085
H	-0.9754375539	 1.8302754364	 0.394082155	 0.129172
H	-0.8389992756	-0.5514973034	-0.3922397649	 0.08722
H	 1.3416671682	-1.7250478168	-0.7177903364	 0.098319
H	 2.5120242632	 0.5313240136	-0.9552109362	 0.299358
H	 2.1815130618	 0.2822928827	 1.7714186797	 0.298076
H	-0.7596186713	-1.6649470315	 2.4919306901	 0.091383
H	-0.3729528459	-2.6184566685	 1.0476563072	 0.100497
H	 1.5129300972	-2.1189384792	 3.0556834432	 0.286205
