20
gdb 82903	3.08069	1.8787	1.59871	1.3925	77.36	-0.2052	0.0917	0.2968	920.4272	0.174976	-403.121996	-403.115443	-403.114499	-403.152539	28.249	
C	-0.2874556341	 1.4622059614	 0.0323152217	-0.33981
N	 0.082150811	 0.061749408	-0.0140838428	-0.031464
C	 0.9750522409	-0.413935761	-1.0863283323	-0.058948
C	 2.2954646106	 0.320971902	-0.7529285287	-0.208976
C	 2.413118353	-0.4433502396	 0.5737927662	 0.05642
O	 2.6322155795	-1.7532696537	 0.0204106506	-0.26588
C	 1.3168852151	-1.9019884141	-0.541727153	 0.061119
C	 0.5323916543	-1.9943212676	 0.7807296019	-0.183361
C	 0.8671639757	-0.5219624808	 1.0923007336	-0.056611
H	 0.5361063981	 2.178707632	 0.1905536595	 0.097827
H	-0.784835924	 1.7312320054	-0.9057337898	 0.120568
H	-1.0096678506	 1.6106450281	 0.8424394057	 0.120257
H	 0.5579104951	-0.3343101896	-2.0897656916	 0.068104
H	 3.1461608244	 0.0852409685	-1.3933383972	 0.105612
H	 2.1659281601	 1.4024166105	-0.6985534048	 0.09361
H	 3.1882294532	-0.1873667153	 1.293261791	 0.075836
H	 1.2891471426	-2.7199904672	-1.2585710559	 0.078576
H	-0.5450799025	-2.1366030627	 0.7119819253	 0.10065
H	 0.9947783634	-2.7454385954	 1.422694052	 0.098192
H	 0.6458296842	-0.1127086387	 2.0764710084	 0.068279
