21
gdb 60090	2.2452	1.2034	0.94755	1.7779	80.13	-0.2455	-0.0123	0.2333	1341.5072	0.179897	-424.231635	-424.221514	-424.22057	-424.266956	37.294	
C	 0.1065059259	 1.5342134876	 0.0038897363	-0.402168
C	 0.0405057714	 0.0260480987	 0.2447177753	 0.128352
O	 0.1497849898	-0.2729312109	 1.6396703015	-0.436749
C	-1.2914753117	-0.5661665319	-0.228042559	-0.285174
C	-1.3398273743	-2.0826130933	-0.2416863298	 0.26989
C	-1.4512124693	-2.8642597042	 1.0643840937	-0.288492
C	-2.630078551	-2.80403845	 0.1598337005	-0.325679
C	-0.5775330951	-2.7561500892	-1.3176931827	 0.117147
O	 0.0705902158	-2.1936813349	-2.1687237618	-0.282781
H	 1.0480927597	 1.9465651571	 0.3844708635	 0.102066
H	 0.051520593	 1.7641359911	-1.0649383433	 0.122146
H	-0.7172836287	 2.0422208239	 0.5162150744	 0.119184
H	 0.8547650505	-0.4608767651	-0.3098623631	 0.090092
H	 1.0096332444	 0.0354672355	 1.9415137626	 0.280739
H	-2.0823973179	-0.1760521293	 0.4231067525	 0.098098
H	-1.4901045264	-0.2039443295	-1.2420176148	 0.113274
H	-0.9069674926	-3.8004280508	 1.1376498018	 0.118212
H	-1.4343783934	-2.2600554265	 1.9615057141	 0.149254
H	-3.4649680181	-2.1648246975	 0.4237732654	 0.127801
H	-2.9053574268	-3.6946659318	-0.3956899459	 0.121101
H	-0.6463246352	-3.870315179	-1.2942267711	 0.063684
