15
gdb 79601	2.93628	1.54771	1.20747	5.0259	65.76	-0.253	-0.0358	0.2172	1003.0529	0.110829	-457.696524	-457.688811	-457.687867	-457.728936	28.883	
O	-0.2487446478	 1.4289618792	-0.0588895416	-0.420245
C	-0.0691529812	 0.0539441566	 0.1036664528	 0.100782
C	-0.4749412506	-0.7012889259	 1.3466047207	-0.160537
C	-1.7152825987	-0.0956015387	 1.9556867637	-0.021703
O	-2.820593074	-0.9757549515	 1.8197330906	-0.263974
C	-2.4585628415	-0.2159055412	 0.6641196249	 0.325831
C	-3.4122070817	 0.7701260013	 0.097803102	 0.066576
O	-4.4407237638	 1.1075356909	 0.625338973	-0.25808
C	-1.2523765155	-0.8483947742	-0.0022225403	-0.205014
H	 0.4464699438	 1.8861644513	 0.4265710846	 0.292253
H	 0.8316658547	-0.3417189205	-0.3692262244	 0.1021
H	 0.1704136107	-1.4305799548	 1.8216886328	 0.110674
H	-1.803301059	 0.6941850312	 2.6919975031	 0.125949
H	-3.0729454869	 1.1957569435	-0.8703139087	 0.092452
H	-1.2818906886	-1.7077175772	-0.6602997831	 0.112937
