11
gdb 132223	2.09278	1.86887	0.98725	3.0525	55.43	-0.2617	-0.0382	0.2235	1039.9161	0.065875	-533.843571	-533.836807	-533.835863	-533.875173	25.056	
O	-0.1647146484	 1.2602227845	 0.0101964064	-0.371317
C	 0.0370698518	-0.0498077575	 0.0023144632	 0.514442
N	 1.1840611667	-0.5945249337	-0.0066934794	-0.428245
C	 1.279645995	-2.0105532665	-0.0146205755	 0.406272
O	 2.3509977783	-2.5679478918	-0.0232376186	-0.339399
C	-0.0072755432	-2.7257926885	-0.011447207	-0.453596
C	-1.1330216901	-2.0144488111	-0.0017039003	 0.414695
F	-2.3489886194	-2.4908982851	 0.0023211694	-0.023701
O	-1.1769664768	-0.6642370809	 0.0055889739	-0.199575
H	 0.7128137359	 1.6695894616	 0.0076157887	 0.331662
H	-0.02855279	-3.8054371012	-0.0169683508	 0.148762
