4
gdb 6	285.48839	38.9823	34.29892	2.1089	14.18	-0.267	-0.0406	0.2263	59.9891	0.026603	-114.483613	-114.480746	-114.479802	-114.505268	6.413	
C	-0.0139776956	 1.1802114286	 0.0077524981	-0.031232
O	 0.0023139861	-0.0196636557	 0.0021610727	-0.165864
H	 0.9149602868	 1.789511172	 0.0039565555	 0.098548
H	-0.9591097173	 1.7640179751	 0.0171828436	 0.098548
