18
gdb 91519	2.55766	1.45761	1.13469	13.0545	73.28	-0.1777	-0.0089	0.1689	1115.0972	0.147707	-439.027794	-439.019214	-439.01827	-439.061354	32.047	
C	 0.0379583841	 1.671698814	 0.1573822319	-0.430806
C	 0.070518126	 0.1642327272	 0.1496560372	-0.01699
N	 1.0561838871	-0.494330584	-0.8952510279	-0.30431
H	 0.5686510323	-1.0330036023	-1.6087699219	 0.306265
H	 1.7179786605	 0.1354172345	-1.3541971173	 0.292462
C	 1.6272226177	-1.3390677002	 0.2222391426	-0.083088
C	 2.2328801404	-0.4509997531	 1.250609011	-0.348197
C	 0.7433820349	-0.6329084349	 1.2541667638	 0.228401
C	-0.0799212062	-1.2808191589	 2.3972372512	 0.296289
O	-1.2784705422	-0.9430599705	 2.3438977063	-0.486856
O	 0.5766875134	-2.0279398139	 3.1328956964	-0.480311
H	 1.0232605292	 2.1116663411	 0.3379407556	 0.128163
H	-0.3783379088	 2.0857334481	-0.7667174302	 0.125609
H	-0.617564719	 1.9591728361	 0.9848208922	 0.193686
H	-0.9127371249	-0.2671580809	-0.0392381263	 0.151715
H	 1.8358854773	-2.3807597907	 0.0203157473	 0.147
H	 2.6825855573	-1.0049276996	 2.0699543515	 0.177886
H	 2.7336838808	 0.4737337079	 0.9690561267	 0.103082
