17
gdb 98235	2.47179	1.34135	0.93328	8.8752	68.68	-0.2284	-0.0283	0.2001	1229.9128	0.134439	-492.329522	-492.320277	-492.319333	-492.363725	33.553	
C	-0.1785848152	 1.4193125258	-0.3123958844	-0.357308
N	-0.325160828	-0.0221468372	-0.2474053911	-0.266075
C	-1.3150566277	-0.6411858662	 0.3535483473	 0.425902
N	-2.2902636523	-0.0515830712	 1.0336320471	-0.518214
H	-3.0201240276	-0.678780694	 1.3502919363	 0.299962
H	-2.4274952232	 0.9443706909	 1.0532431668	 0.278624
C	-1.3551045176	-2.1361832909	 0.247752319	-0.094812
O	-2.5632046104	-2.644151436	 0.7262032085	-0.445779
C	-1.1411557093	-2.5647504658	-1.2824380034	 0.379855
O	-0.148452899	-2.0506291161	-1.8441466537	-0.4653
O	-2.008408198	-3.3537357294	-1.66602053	-0.432798
H	 0.7570979372	 1.6527687732	-0.8208987832	 0.16705
H	-0.9989198133	 1.8927218299	-0.8678235683	 0.144534
H	-0.135856524	 1.850702127	 0.6938675174	 0.143144
H	 0.1057343637	-0.6809192949	-0.9602127718	 0.312188
H	-0.4923443875	-2.5344524579	 0.800888948	 0.127838
H	-2.8644298078	-3.1575690073	-0.0633255945	 0.301188
