19
gdb 73219	2.09503	1.89612	1.4161	1.9352	74.35	-0.2371	-0.0271	0.21	1015.3834	0.159055	-423.041305	-423.033017	-423.032073	-423.07435	31.572	
C	 0.0931603411	 1.5980881965	-0.1996061944	-0.477518
C	-0.0249604044	 0.1030756431	 0.0571810633	 0.185072
C	-1.4019485593	-0.4644917549	 0.5376677834	-0.272876
C	-0.6645537177	-1.3266927104	 1.6003354458	-0.257524
C	 0.6586577873	-0.5716670212	 1.2734103292	 0.081684
O	 1.7606516008	-1.3537007342	 0.8231451203	-0.264574
C	 1.5554224311	-1.708170983	-0.5304351967	-0.193875
C	 0.5423101212	-0.712400458	-1.1074886909	 0.337637
O	 0.2521986985	-0.5969863075	-2.2695483682	-0.316006
H	 1.1397258162	 1.9035840784	-0.3059911913	 0.124965
H	-0.4282823878	 1.8615496263	-1.1251822777	 0.141495
H	-0.3456009732	 2.1711857675	 0.6231460616	 0.115325
H	-2.0194375136	 0.3227458067	 0.977651788	 0.110301
H	-1.9983848808	-0.9902388483	-0.2114589699	 0.115601
H	-1.0228195058	-1.2401658909	 2.6278287564	 0.108655
H	-0.6039920047	-2.3877918998	 1.3460891785	 0.113321
H	 1.0259170911	 0.0807424694	 2.0681523461	 0.086273
H	 2.5050611462	-1.6607775237	-1.0729112997	 0.139117
H	 1.1572944039	-2.7299293958	-0.6412774438	 0.12293
