17
gdb 82716	2.39994	2.17808	1.66501	3.325	72.08	-0.2164	-0.0132	0.2033	878.0253	0.137426	-417.953272	-417.946235	-417.94529	-417.984541	27.695	
C	-0.2181702074	 1.4959995768	 0.1182820392	-0.340531
N	 0.1137213878	 0.0883984832	-0.0161593678	-0.061611
C	 0.733017949	-0.4550941862	-1.2407748087	-0.032422
C	 2.0788028338	 0.2092112661	-1.6609655419	-0.206234
N	 2.7657063001	-0.4699389447	-0.4968040652	-0.176492
C	 1.5761181949	-1.3881202498	-0.3312930839	 0.001912
C	 1.0994585084	-0.566608726	 0.8928994222	-0.168214
C	 2.4170683305	 0.2167380509	 0.7307715021	 0.396799
O	 2.9198727641	 1.1756430391	 1.2387114709	-0.320878
H	 0.6460395712	 2.1759663063	 0.0676375989	 0.125493
H	-0.9233351424	 1.7657068672	-0.6748232978	 0.126118
H	-0.7133586194	 1.6557829728	 1.0814023402	 0.133497
H	 0.0199846714	-0.7411350889	-2.0174337194	 0.085802
H	 2.4638389256	-0.175655249	-2.6103521007	 0.120895
H	 2.1586929843	 1.299948281	-1.6512755374	 0.129918
H	 1.7101660591	-2.4629179749	-0.3998704179	 0.096758
H	 0.7089142089	-0.8943776738	 1.8580192173	 0.08919
