16
gdb 23563	2.45399	1.56333	1.08483	1.8688	73.95	-0.2442	-0.0056	0.2385	1102.7004	0.122784	-437.773484	-437.765544	-437.7646	-437.805968	30.329	
O	-0.1187538207	 1.3267915337	 0.0862429469	-0.392197
N	 0.0237217226	-0.0676890945	-0.0221528761	-0.270487
C	-1.0998975588	-0.648634131	-0.0392105889	 0.361161
C	-2.5597067482	-0.2696668485	 0.0654759197	-0.083781
O	-3.2255569051	-0.9033047115	-1.0484131733	-0.237178
C	-2.9165037965	-1.7077065075	 0.0901799979	-0.089264
C	-1.4492580075	-2.1140900462	-0.0280377195	 0.28705
C	-0.828054901	-3.2557063188	-0.7768072598	-0.310959
C	-0.7215635075	-3.1952341897	 0.7261348012	-0.325952
H	 0.7971430702	 1.6248439635	 0.0863871383	 0.308727
H	-3.0262008082	 0.5976596399	 0.5110968821	 0.12441
H	-3.7280871027	-2.2129198465	 0.5995171371	 0.117596
H	-1.4914599884	-3.9910704853	-1.2191685847	 0.123355
H	 0.0586335003	-3.032789137	-1.3598913204	 0.133848
H	 0.2328949986	-2.9294497221	 1.1666259486	 0.133834
H	-1.316867017	-3.8881782383	 1.3119980809	 0.119837
