17
gdb 62372	2.62417	1.83838	1.35061	1.3056	77.47	-0.2377	-0.0064	0.2314	975.2183	0.134358	-384.603466	-384.595624	-384.59468	-384.635244	31.529	
C	-0.1058761733	 1.5022450221	-0.0123823547	-0.466289
C	-0.0444543548	-0.0280945798	-0.0086526484	 0.158866
C	-1.3389064361	-0.5967470494	-0.3461769499	 0.243927
C	-2.432655633	-1.0082213539	-0.6309202885	-0.439346
C	 1.266701857	-0.6283250625	-0.6783069402	-0.016574
O	 1.993703548	-0.1999396965	 0.5143775351	-0.287728
C	 0.7830175678	-0.6431524717	 1.20164939	-0.01657
C	 0.7722507403	-2.143177805	 0.8737836841	-0.078914
C	 1.1047619862	-2.1329844562	-0.4185744423	-0.078909
H	 0.8690028514	 1.9202639815	 0.2417031966	 0.139738
H	-0.4091777244	 1.8675120504	-0.9983167702	 0.125577
H	-0.8486643859	 1.8540326917	 0.7101071274	 0.125577
H	-3.3918727367	-1.38907354	-0.8808776039	 0.190094
H	 1.6699028211	-0.258622573	-1.6202635935	 0.085309
H	 0.6801626415	-0.2889650444	 2.2265912354	 0.08531
H	 0.5248247628	-2.9557471067	 1.5396000384	 0.114967
H	 1.2124711579	-2.9346683565	-1.1330690255	 0.114967
