15
gdb 15293	3.06535	1.54087	1.23655	2.8932	68.72	-0.2428	-0.0309	0.2119	988.6963	0.116393	-362.593802	-362.585665	-362.58472	-362.626616	29.222	
O	-0.9329772882	 1.087306292	-0.5530003645	-0.264671
C	-0.277471267	 1.818602276	 0.1502291479	 0.136939
C	 1.2101128942	 1.7756372512	 0.1846099874	-0.084297
C	 1.9648763434	 3.0683827702	 0.366229748	-0.251224
N	 1.9985703815	 2.0609961165	 1.3934053252	-0.087457
C	 1.3834341682	 2.283762469	 2.7138646352	-0.287094
C	 0.5042428441	 3.4423975	 2.8844908413	 0.294238
C	-0.1844154781	 4.4171617476	 3.0343282896	-0.450222
H	-0.7538914871	 2.5730440073	 0.8082694466	 0.09837
H	 1.6316164773	 0.9965772553	-0.445876811	 0.114852
H	 2.884898867	 3.2196402686	-0.1919568665	 0.132279
H	 1.3717548599	 3.9644083491	 0.5420844087	 0.135303
H	 0.8534490424	 1.3661437938	 2.992711082	 0.151541
H	 2.2166584168	 2.3842855213	 3.4204259162	 0.151899
H	-0.8062553447	 5.2675294422	 3.1723518739	 0.209545
