19
gdb 13878	3.99251	1.50049	1.16257	1.4206	71.72	-0.2462	0.0231	0.2693	1052.6736	0.165986	-365.086013	-365.077751	-365.076807	-365.118939	30.283	
C	 0.2239467397	 1.4766605859	-0.2970324471	-0.396735
C	-0.0111578797	-0.0055850815	 0.0270346411	 0.028511
C	 0.7408795081	-0.4150021778	 1.298633811	-0.388255
C	-1.51551989	-0.3066605793	 0.1507972268	 0.03353
C	-2.3299203491	-0.0658101079	-1.1515980927	-0.126123
O	-3.0512039584	-1.3054399491	-1.3604301385	-0.22264
C	-2.6011270781	-2.1407970859	-0.3956643397	 0.117587
N	-1.7754277879	-1.728194979	 0.4700617768	-0.27648
H	 1.293154519	 1.6851403052	-0.4025250833	 0.117184
H	-0.2635337226	 1.7841633627	-1.2284106166	 0.111522
H	-0.1595437727	 2.1161775328	 0.5072251048	 0.114611
H	 0.3688903114	-0.6111254357	-0.808570932	 0.073415
H	 0.4011140968	 0.1750841293	 2.158541979	 0.108048
H	 0.5732414175	-1.4687647556	 1.5287526586	 0.139993
H	 1.8163953436	-0.2448243101	 1.1842429222	 0.104777
H	-1.9144842185	 0.2994537187	 0.9762404535	 0.083842
H	-3.059501125	 0.7435310462	-1.0812234889	 0.121975
H	-1.6930961011	 0.1020525528	-2.0266799237	 0.114942
H	-3.0121066329	-3.1433226916	-0.4475922211	 0.140297
