19
gdb 111625	3.12532	1.24757	1.18913	1.9323	74.02	-0.2393	0.0775	0.3168	1125.0204	0.160474	-422.972197	-422.964362	-422.963418	-423.004684	30.898	
O	-0.154717788	 1.6189347144	 0.1793757481	-0.421538
C	 0.0814469698	 0.2156362058	 0.1598829043	-0.109438
C	-1.2336891954	-0.536528557	 0.0923528758	-0.065853
C	-1.7881860499	-1.1344523111	-1.1771125072	 0.055376
O	-0.8595254355	-1.4744661629	-2.1857859511	-0.265485
C	-0.2552343674	-2.7205490934	-1.9019208838	 0.102033
C	 0.8520648224	-2.7893709239	-0.882569251	-0.332336
C	-0.5771353444	-3.1028452328	-0.4809401993	-0.068059
C	-1.5301414277	-2.035206087	 0.0082177551	-0.122313
H	-0.5431847074	 1.8537415076	-0.6698388205	 0.284055
H	 0.7290020374	-0.0501427886	-0.6823385961	 0.107759
H	 0.6168379405	-0.0058666875	 1.0887281425	 0.11443
H	-1.9843945954	-0.0242872061	 0.6921535715	 0.098007
H	-2.7668308819	-0.8679582839	-1.5656440645	 0.094697
H	-0.2693996909	-3.4033386812	-2.7455424886	 0.099684
H	 1.5187286333	-3.6423508906	-0.9686185003	 0.113178
H	 1.3355099204	-1.8888977148	-0.5336610192	 0.127716
H	-0.8244807296	-4.1215934732	-0.2074936101	 0.093707
H	-2.3480781203	-2.3847021239	 0.6272816244	 0.094383
