20
gdb 9552	2.7411	1.64843	1.51978	2.2033	70.83	-0.2415	0.0651	0.3066	991.8201	0.174805	-386.127771	-386.118418	-386.117474	-386.161571	34.121	
C	 0.1283620613	 1.4999878899	 0.1759689793	-0.396754
C	-0.2132233332	 0.0435328591	-0.1559617298	-0.199033
C	 0.6168818448	-0.5240252975	-1.3124031111	 0.412403
C	 0.3552226611	 0.1592583465	-2.6461893448	-0.444973
O	 2.0452608825	-0.4874614725	-0.9895482225	-0.324197
C	 2.0977006409	-1.9127394899	-0.7992306314	-0.105988
C	 0.6687275594	-2.0779963488	-1.3561912096	 0.007884
O	-0.2945616041	-2.7223151402	-0.5586172788	-0.424488
H	 1.2037952854	 1.6070811132	 0.3434652129	 0.134344
H	-0.1604759111	 2.1867495966	-0.6257214886	 0.111768
H	-0.3925764238	 1.8189358583	 1.0836425573	 0.108884
H	-0.0464569188	-0.5812562611	 0.7262827984	 0.107113
H	-1.2766037978	-0.0596730009	-0.4026522887	 0.098327
H	 0.5952927343	 1.2247171721	-2.5961071716	 0.128764
H	 0.9728805655	-0.2861776126	-3.4312785528	 0.11372
H	-0.6982041957	 0.0569484253	-2.9291018235	 0.117523
H	 2.9187120181	-2.3739745549	-1.3608971088	 0.095679
H	 2.1754315685	-2.1943124913	 0.2597912462	 0.097664
H	 0.6521074967	-2.4596329501	-2.3849697483	 0.071836
H	-0.237193384	-3.669573951	-0.7140217037	 0.289524
