19
gdb 85302	2.43869	1.83618	1.31815	3.7375	76.97	-0.2389	0.0286	0.2675	1022.8518	0.162	-419.199288	-419.191703	-419.190759	-419.231165	30.332	
C	-0.2920771708	 1.5593125537	 0.1612163085	-0.400986
C	 0.078885775	 0.0913309876	 0.011918741	 0.152222
O	 0.9153510069	-0.0474387731	-1.1682481389	-0.285257
C	 2.183324159	-0.5353979916	-1.0475035883	 0.46309
N	 2.9738564296	-0.6402128113	-2.0288582403	-0.541904
C	 2.5565154712	-0.978429835	 0.3406437219	-0.087755
C	 1.4101419641	-1.856282144	 0.9074644118	-0.249519
C	 0.7883595291	-0.4807340697	 1.2377955973	-0.024271
N	 2.1562522838	 0.1496489067	 1.2668269826	-0.332008
H	 0.5931537245	 2.1389564384	 0.433086109	 0.147797
H	-0.6967673596	 1.9432457334	-0.7784458645	 0.127324
H	-1.052117825	 1.6824519001	 0.939984422	 0.110646
H	-0.8181366988	-0.5078921498	-0.1907322316	 0.087778
H	 2.5224293302	-0.3017481561	-2.8818654	 0.217194
H	 3.5926171059	-1.3090617519	 0.3724070125	 0.098979
H	 0.8793617792	-2.5364160486	 0.2340644693	 0.111189
H	 1.7229800879	-2.3899280322	 1.8082063133	 0.10417
H	 0.1743492526	-0.3562166091	 2.1330553043	 0.07817
H	 2.571592045	-0.0455519174	 2.1764793601	 0.223141
