17
gdb 10319	2.5765	1.90032	1.18738	2.9219	67.99	-0.2424	0.0089	0.2513	1013.1208	0.142676	-397.229291	-397.220429	-397.219485	-397.262902	31.881	
C	-0.1185043859	 1.5823984599	 0.000638794	-0.384978
C	 0.0415499478	 0.0608520744	 0.0365150201	-0.170013
N	 0.6884133743	-0.4841840632	-1.1608925528	-0.121651
C	 2.0553450574	-0.7391357184	-1.1206964221	 0.100944
N	 2.7426267191	-0.51986294	-0.0718411663	-0.491156
C	 0.0293863067	-0.7014025327	-2.3811734402	 0.47923
N	-1.3064264447	-0.3768096963	-2.396948655	-0.571704
O	 0.6025683378	-1.1129861264	-3.3722263125	-0.393415
H	 0.8624350072	 2.0585427058	-0.0750766347	 0.145941
H	-0.7264296393	 1.9052519422	-0.849148481	 0.126327
H	-0.5977960051	 1.9314836436	 0.9207026316	 0.11895
H	 0.6815886109	-0.223747502	 0.8728773694	 0.160372
H	-0.9210109548	-0.441254804	 0.1869610082	 0.098749
H	 2.415191172	-1.1291626707	-2.07215479	 0.146875
H	 3.7132086984	-0.7786220587	-0.2349257184	 0.228474
H	-1.8455411424	-0.3107110982	-1.5516657153	 0.259305
H	-1.7903837795	-0.7028819351	-3.2175439451	 0.267748
