19
gdb 3975	3.90163	1.0552	0.94402	1.5631	71.09	-0.2409	0.0109	0.2518	1268.2619	0.161999	-402.163339	-402.153281	-402.152337	-402.198918	35.582	
C	-0.8906321657	 0.2466273652	-0.1631215366	-0.404891
C	 0.5724245496	-0.1063519613	-0.4312962269	 0.140185
O	 1.3081759001	 1.0467747945	-0.8317487221	-0.435965
C	 1.3305632139	-0.6553689357	 0.7903053284	-0.263049
C	 0.8012816954	-1.9668613819	 1.3159206563	 0.335519
C	-0.3147033753	-2.0094359653	 2.327851808	-0.467097
N	 1.3695803597	-3.0173838292	 0.8569412844	-0.159536
O	 0.802364822	-4.1875216986	 1.3907248783	-0.401212
H	-0.9677413753	 0.9884880167	 0.6386164482	 0.121702
H	-1.3510296504	 0.671620598	-1.0629669944	 0.105273
H	-1.4750536565	-0.6353871207	 0.1143889655	 0.123639
H	 0.6156287458	-0.8766267124	-1.2180101373	 0.077606
H	 0.8607167718	 1.4354649853	-1.5900116833	 0.27975
H	 2.3707526544	-0.7886533183	 0.4843074938	 0.127832
H	 1.3085718489	 0.1030589817	 1.5817868035	 0.10505
H	-1.164282128	-2.5858752687	 1.9472651592	 0.145444
H	 0.0226754215	-2.5269249127	 3.2323518574	 0.145523
H	-0.6530913982	-1.0081015368	 2.5972483872	 0.118995
H	 1.3371346765	-4.8746914598	 0.9799133105	 0.305231
