19
gdb 80989	2.75864	1.49501	1.20141	2.3246	75.57	-0.2326	-0.0077	0.2248	1078.2078	0.159181	-423.037394	-423.029193	-423.028249	-423.069597	32.607	
C	 0.019367543	 1.5162134495	 0.0321543574	-0.50116
C	 0.0313145632	 0.0065159913	 0.0115010349	 0.318211
C	 0.9567959973	-0.8112169346	-0.9491741072	-0.279853
C	 0.7256248143	-1.9600087358	 0.0882635998	-0.181669
C	 0.687698101	-0.8088988075	 1.1665090726	 0.108129
O	 1.9402642915	-0.2690371195	 1.5100108958	-0.442874
C	-0.7634732958	-2.1919343622	-0.0822422394	 0.428482
O	-1.375920542	-3.2248290357	-0.1347768365	-0.336893
C	-1.3059905714	-0.7472001701	-0.1468071777	-0.38504
H	 1.0211515877	 1.9069720739	 0.2307110331	 0.135094
H	-0.3232753683	 1.9193077941	-0.927206582	 0.117013
H	-0.6523281718	 1.8958118524	 0.8105031461	 0.116217
H	 0.6185375593	-0.9745832473	-1.9760426118	 0.099382
H	 1.9860700485	-0.4565746239	-0.93079764	 0.123321
H	 1.3656944562	-2.8358494201	 0.1780490885	 0.075472
H	 0.0757411214	-0.9904291085	 2.0617183134	 0.069851
H	 2.3896092138	-0.8898983513	 2.0919554485	 0.290219
H	-2.0229588327	-0.5617180512	 0.660610311	 0.120997
H	-1.8066762351	-0.5458127736	-1.0994594064	 0.125103
