20
gdb 93941	2.84514	1.23209	1.04271	15.8888	77.22	-0.1519	-0.036	0.1159	1205.0539	0.173209	-440.254716	-440.245869	-440.244925	-440.288747	33.097	
N	 0.0599178467	 1.3940927097	 0.2096533848	-0.439185
H	-0.0123558458	 0.4726805484	-0.2302959786	 0.316405
H	 1.0516014065	 1.6209111345	 0.3140654543	 0.333871
H	-0.3644955373	 2.0833933932	-0.4147734013	 0.325903
C	-0.6142425189	 1.3893714348	 1.5843646438	-0.001666
C	-2.1082192738	 1.054444339	 1.4943224038	-0.236019
C	-2.4091875399	 0.4093106943	 2.8847351852	-0.194024
C	-1.058562004	 0.439888489	 3.6436819921	-0.121023
C	-0.0059695133	 0.3601108787	 2.5252730509	-0.23545
C	-0.9374410188	 1.8133404001	 4.450956441	 0.345031
O	-1.7617441442	 1.9228146318	 5.3638055874	-0.456306
O	-0.0586445306	 2.612401087	 4.0321844842	-0.492415
H	-0.4177028776	 2.3673472247	 2.0380031389	 0.177506
H	-2.7158327985	 1.9400860345	 1.2887565385	 0.121675
H	-2.2932108423	 0.3366633646	 0.6816714376	 0.076461
H	-3.155785539	 0.9645316745	 3.4539923992	 0.140836
H	-2.7850934149	-0.6089576919	 2.7393135271	 0.083458
H	-0.9772766513	-0.3806627003	 4.3584851875	 0.075647
H	 0.0374137456	-0.6359287098	 2.0534123439	 0.057646
H	 0.9810304115	 0.6637062632	 2.8793101296	 0.12165
