19
gdb 110117	1.92537	1.35096	0.99183	2.4156	76.64	-0.2489	0.0067	0.2556	1277.8143	0.157981	-419.181444	-419.171529	-419.170585	-419.217031	35.195	
C	-0.9857177749	 1.0485312874	 0.3458954568	-0.383685
C	 0.246908552	 0.2613657353	-0.0891256048	-0.133515
N	 0.7882198254	-0.4939631939	 1.045765464	-0.098399
C	 0.2883587641	-1.8113615937	 1.4036779003	-0.033456
C	-0.7936392336	-2.5692370443	 0.6512772778	-0.096851
O	-0.6672609571	-3.9650024732	 0.8579941339	-0.416546
C	 1.6678941363	-1.6423887146	 0.8112204288	-0.179064
C	 1.9022939925	-2.1468373994	-0.5207872003	 0.282195
N	 2.0937537562	-2.5623363033	-1.5842905987	-0.346385
H	-0.7513288567	 1.6903465957	 1.1994532038	 0.134086
H	-1.3420723437	 1.6763375405	-0.4757850781	 0.124225
H	-1.8031741431	 0.3812854488	 0.6374396091	 0.123474
H	 0.0135506378	-0.3659361064	-0.9604277098	 0.114142
H	 1.0386140431	 0.9498931049	-0.4041800399	 0.119638
H	 0.2621396541	-1.9908595338	 2.4775139973	 0.116613
H	-1.7726164109	-2.2907538311	 1.0548528658	 0.122006
H	-0.791443303	-2.3179580518	-0.4157153664	 0.115867
H	 0.086318756	-4.2699707582	 0.3408039228	 0.296586
H	 2.5428818154	-1.693294529	 1.4540677877	 0.139068
