19
gdb 94384	2.90149	1.47628	1.24738	2.0677	75.1	-0.2347	0.064	0.2987	1067.5496	0.15906	-422.970338	-422.962239	-422.961295	-423.003056	31.489	
O	 0.1658264776	 1.1207296173	-0.5331864998	-0.427378
C	 0.1086493722	-0.1580770023	 0.0501475155	-0.013397
C	-0.044227364	-0.27463744	 1.5822347233	-0.116926
O	-1.2323193791	-1.0783377598	 1.422342419	-0.328296
C	-1.2886880238	-0.8041314219	 0.0050469149	 0.457536
C	-2.5624980999	-0.0345466792	-0.4641138886	-0.305051
C	-2.9179815641	-1.2268012733	-1.3645820724	-0.043989
C	-1.7868948347	-1.4908218689	-2.3136831523	-0.285206
C	-1.6725389445	-1.9759601915	-0.8882748721	-0.131327
H	 1.0793702789	 1.4223839462	-0.5273164283	 0.288917
H	 0.8830421829	-0.8231282705	-0.3540395598	 0.077587
H	 0.737755141	-0.8038862551	 2.1383853022	 0.098061
H	-0.2547981681	 0.6902676009	 2.0618954308	 0.100289
H	-3.234419627	 0.0768371725	 0.3897155614	 0.115137
H	-2.4169861873	 0.9324286498	-0.952935531	 0.110067
H	-3.9151227501	-1.6124181143	-1.5358053613	 0.086286
H	-1.9544173722	-2.2713334331	-3.0490509661	 0.110758
H	-1.1647275151	-0.6709252776	-2.6655908649	 0.11783
H	-1.5356974427	-3.0190671292	-0.6308746607	 0.089101
