19
gdb 107183	3.43619	1.19942	1.13065	3.2767	74.42	-0.2328	0.0522	0.2849	1171.628	0.157985	-422.947951	-422.939653	-422.938709	-422.980832	32.648	
C	 0.1783592477	 1.4903196585	 0.0614000486	-0.383978
C	-0.0817507091	-0.0113402056	-0.1172143281	-0.302055
C	-1.5288081047	-0.3783814419	-0.0221802214	 0.431658
O	-1.9629923486	-1.6104226174	-0.6560126336	-0.325758
C	-2.636806499	-0.3674415972	-0.9752165748	-0.051716
C	-3.6673598133	-0.0303752153	 0.1329128262	-0.17339
C	-3.6622170495	-1.0091332045	 1.2803777904	 0.151599
O	-3.6502097932	-2.3921128862	 1.224826097	-0.428096
C	-2.4969699999	-0.057062061	 1.1593120014	-0.223845
H	 1.2467434776	 1.7062910028	-0.026015761	 0.122255
H	-0.3483111413	 2.0757867202	-0.6988189792	 0.122097
H	-0.1512980228	 1.842488104	 1.0436564537	 0.125315
H	 0.2839039631	-0.3489495516	-1.0929732489	 0.117523
H	 0.475724482	-0.5773139115	 0.6411234301	 0.113889
H	-2.6913647174	-0.0994623495	-2.0237957706	 0.111581
H	-4.4257870245	 0.7318153451	 0.001348639	 0.094253
H	-4.3419961527	-0.6904561999	 2.0687021017	 0.110019
H	-3.0321632151	-2.6165509158	 0.5155312373	 0.294605
H	-2.2588967991	 0.6794252467	 1.9173895722	 0.094043
