21
gdb 111990	4.00253	1.10088	0.9762	0.9426	85.06	-0.2279	0.0119	0.2399	1300.5157	0.182028	-387.077425	-387.068423	-387.067479	-387.111012	34.326	
C	 0.0440188486	 1.3962410038	 0.0867201876	-0.232062
O	-0.1729681132	 0.0163967092	-0.0858843815	-0.243466
C	 0.5720094354	-0.5578531022	-1.1551442664	 0.079161
C	 2.0424850061	-0.7931193152	-0.8267129912	-0.111885
C	 2.3807628222	-2.0739326478	-0.9710934309	-0.138011
C	 1.2201226411	-2.926090914	-1.3902633773	 0.315204
C	 1.4311002982	-4.0597530444	-2.3647700933	-0.486508
C	 0.1185138333	-2.9807968688	-0.3476129532	-0.307457
C	 0.0550164322	-1.9592078798	-1.459604384	-0.114082
H	 1.074841012	 1.62914661	 0.394163783	 0.103036
H	-0.1732114699	 1.9619875615	-0.8338510769	 0.100358
H	-0.635111115	 1.7337044168	 0.8739913456	 0.125287
H	 0.4671921031	 0.09623224	-2.038612385	 0.062942
H	 2.698240581	-0.0027452498	-0.4808510286	 0.095209
H	 3.3655114066	-2.491790181	-0.7851184226	 0.093052
H	 2.0910064217	-4.8272909289	-1.9430510011	 0.117119
H	 0.4824606812	-4.5440108116	-2.616255963	 0.116423
H	 1.8859825926	-3.7064393169	-3.2971937588	 0.118022
H	-0.5857103851	-3.8050779629	-0.4101162724	 0.104148
H	 0.3327652811	-2.6372491679	 0.6576176631	 0.121495
H	-0.7163519232	-2.0719356401	-2.2120389029	 0.082012
