15
gdb 46469	3.06431	1.52965	1.10333	5.809	69.13	-0.2444	-0.0681	0.1763	1050.6218	0.11293	-453.939449	-453.93158	-453.930635	-453.972376	28.992	
N	-0.1024290989	 1.2890584206	 0.1016087303	-0.514354
C	-0.0084611288	 0.0208293724	 0.0367022654	 0.296747
N	 1.0851097205	-0.8093718831	-0.0782931163	-0.368534
C	 0.8248528836	-2.2424109594	 0.0200094153	-0.270396
C	-0.6939705224	-2.3109968307	-0.0510039215	 0.336042
C	-1.4735173812	-3.3412657766	-0.7586483786	-0.223069
O	-1.3769586026	-3.334974896	 0.6606879871	-0.252014
C	-1.2211905965	-0.8951118535	 0.0629595023	 0.292138
O	-2.374126074	-0.576454073	 0.1517745924	-0.283865
H	 0.8157087953	 1.7395395722	 0.0828001531	 0.207429
H	 2.0226621898	-0.4479161206	-0.0133738387	 0.250592
H	 1.312600761	-2.7908463	-0.7933732428	 0.124094
H	 1.1685394541	-2.6658808293	 0.9729758554	 0.135515
H	-2.4488707924	-3.0709860832	-1.1588539065	 0.144745
H	-0.9420811675	-4.1452485697	-1.2660896969	 0.12493
