22
gdb 16763	4.73332	1.27265	1.12767	0.2439	81.11	-0.2575	0.0807	0.3381	1152.2022	0.202161	-313.076974	-313.068942	-313.067998	-313.109429	31.435	
C	-0.0164865262	 1.5287204906	 0.1201668609	-0.384089
C	-0.0016482812	 0.0012235189	 0.000795883	-0.186181
C	 0.7323104706	-0.5209118826	-1.2370645456	 0.077583
C	 2.2506867761	-0.1990266387	-1.2899645836	-0.241931
C	 2.8719189779	-1.300423643	-2.1507039599	-0.028113
C	 3.1772011357	-2.6166098731	-1.4818392051	-0.275919
C	 1.8812732818	-2.4468494395	-2.2331924135	-0.027947
C	 0.6453239421	-2.0589858029	-1.4213205541	-0.255585
H	 0.9970450286	 1.9358112311	 0.197490113	 0.11776
H	-0.4910380707	 1.9883228655	-0.7543873137	 0.111841
H	-0.571182821	 1.8522766403	 1.0066103016	 0.109516
H	 0.462721309	-0.4335523	 0.8971479412	 0.089526
H	-1.0352087632	-0.3691396316	-0.0143382839	 0.090932
H	 0.2758678581	-0.063259266	-2.1263436167	 0.065597
H	 2.4396278494	 0.792617252	-1.7107798956	 0.09699
H	 2.6785139604	-0.1969063969	-0.2780927344	 0.092073
H	 3.4671437835	-1.0154317712	-3.0110973853	 0.07814
H	 3.9425918224	-3.2451569622	-1.9256858545	 0.103222
H	 3.1399656014	-2.6630042881	-0.3962870867	 0.101257
H	 1.7476985076	-3.0026440808	-3.1545949089	 0.078262
H	 0.6381597658	-2.5624624503	-0.4453520184	 0.092239
H	-0.2808190484	-2.3471446416	-1.9279477097	 0.094829
