13
gdb 7226	5.28208	1.19206	0.97823	1.6085	60.93	-0.2467	-0.0702	0.1766	1102.9574	0.092616	-398.612499	-398.603934	-398.60299	-398.64636	29.95	
N	 0.0200079091	 1.3151193894	 0.0076911189	-0.523302
C	 0.0778270249	-0.0327223317	 0.000121604	 0.340133
O	 1.0865002331	-0.712493239	-0.0131290439	-0.349247
C	-1.3306696584	-0.6761387319	 0.010244435	 0.295179
O	-2.3220377864	 0.0096946978	 0.0229007491	-0.285141
C	-1.3151670921	-2.1989600874	 0.0028855699	-0.484216
C	-2.6312544981	-2.8099024954	 0.0118894589	 0.312769
C	-3.7195120888	-3.316437252	 0.0193156259	-0.411744
H	 0.8678660948	 1.8561410913	 0.0026530249	 0.271951
H	-0.8820554017	 1.763366647	 0.0190126028	 0.282108
H	-0.7244444093	-2.5131011152	-0.8678353628	 0.175811
H	-0.7089021028	-2.5212231156	 0.8598579787	 0.175784
H	-4.6813204943	-3.7662704672	 0.0258501686	 0.199915
