19
gdb 83850	2.19197	1.87999	1.34514	3.4538	77.25	-0.233	0.0078	0.2409	1025.3382	0.161298	-419.189432	-419.181396	-419.180452	-419.221982	31.018	
C	-0.1934859708	 1.4549428001	 0.287245511	-0.331474
N	 0.0375715996	 0.0413996611	 0.0191642074	-0.092842
C	 0.4847494738	-0.4243961651	-1.2850786553	-0.045056
C	 0.8364736752	 0.5366796689	-2.4158990026	-0.247681
C	 2.3150075045	 0.9074693194	-2.3743821436	-0.084086
O	 2.7287104761	 1.3439395784	-1.070261771	-0.249978
C	 2.572048883	 0.4507681924	-0.0414379494	 0.367703
N	 3.3441788084	 0.4498636793	 0.9622289431	-0.510411
C	 1.4047745483	-0.4794672133	-0.0978203736	-0.085623
H	 0.5135210322	 2.1483782795	-0.1871660788	 0.120396
H	-1.2059179699	 1.708674205	-0.0429972641	 0.122356
H	-0.1423167553	 1.608095459	 1.3687891981	 0.138561
H	 0.0044025309	-1.350553685	-1.5932154575	 0.098688
H	 0.6190874032	 0.0640075244	-3.3787773739	 0.112216
H	 0.2212710719	 1.4411752761	-2.3639633488	 0.119969
H	 2.9324178734	 0.0503834504	-2.6747749983	 0.112727
H	 2.5450412184	 1.7427232279	-3.0401370598	 0.119604
H	 4.080480451	 1.1479179096	 0.8332646875	 0.220325
H	 1.5807498463	-1.4062945681	 0.4383842897	 0.114606
