15
gdb 14825	3.64533	1.40751	1.07355	2.954	64.69	-0.2524	-0.0478	0.2046	1046.4729	0.117872	-399.811748	-399.803764	-399.80282	-399.845441	26.984	
O	-0.6875312779	 0.9221023839	-1.074973559	-0.232344
C	 0.0974404851	 0.8261744656	-0.1698978106	 0.15232
C	 1.343122836	 1.6809409637	-0.0318963053	-0.062233
C	 1.30089946	 2.6874165674	 1.1733148007	-0.269247
C	 2.5638343796	 1.9813537067	 1.7436648436	-0.162697
N	 2.4700623561	 1.027555528	 0.6370428806	-0.04806
C	 3.36058892	 0.090666189	 0.2270413199	 0.129053
O	 4.3606757222	-0.2108799715	 0.8414450384	-0.318141
H	-0.0454642756	 0.1051958008	 0.6681348548	 0.087717
H	 1.5774396869	 2.1375043917	-0.9989467333	 0.113619
H	 1.4231674867	 3.7305664282	 0.885992535	 0.136918
H	 0.4115741198	 2.5884468476	 1.7980320815	 0.129747
H	 3.4843932979	 2.5731098295	 1.72480287	 0.132975
H	 2.4565954047	 1.5273936087	 2.7327697398	 0.132525
H	 3.0597170985	-0.3771160592	-0.7332167961	 0.07785
