19
gdb 13088	3.75837	1.27906	1.12278	3.6506	73.45	-0.247	0.0308	0.2777	1121.3378	0.16589	-365.084493	-365.076017	-365.075073	-365.118201	30.937	
C	-0.1870327594	 1.4769683012	 0.1051966757	-0.403165
C	 0.0266473545	-0.0334369278	 0.0756476494	-0.000709
C	 1.0885417436	-0.5074315465	-0.9621825198	-0.224723
C	 2.1407358318	-0.5892419281	 0.1776729628	-0.248363
C	 0.970921137	-0.5913779599	 1.1945476593	 0.067903
N	 1.1256397843	 0.1291924145	 2.4344100067	-0.287444
C	 0.8124934258	-0.3877018788	 3.6552945432	 0.150277
O	 0.3738591483	-1.4996703037	 3.8575036048	-0.321352
H	 0.7623413606	 2.0265294602	 0.1176498744	 0.104554
H	-0.7364758584	 1.8042210855	-0.7833631075	 0.121556
H	-0.7623380443	 1.780626711	 0.9860339668	 0.119361
H	-0.9433326653	-0.5358169141	 0.0191322801	 0.07599
H	 0.852977672	-1.4906905421	-1.3766041853	 0.107165
H	 1.3030675556	 0.175506688	-1.7877385195	 0.098195
H	 2.8213842579	-1.443202393	 0.1959822013	 0.107798
H	 2.7368079022	 0.326406443	 0.2484007986	 0.095708
H	 0.6817441255	-1.6058714547	 1.4712649313	 0.123071
H	 1.4772794846	 1.0733660267	 2.4036119496	 0.243483
H	 1.0120129238	 0.3388545588	 4.4686858279	 0.070694
