23
gdb 60417	4.39557	0.62589	0.5736	2.5008	82.29	-0.2414	0.0669	0.3083	1958.7248	0.204382	-425.406415	-425.395998	-425.395054	-425.443245	37.303	
C	 0.0501669417	 1.5427432602	-0.0589629432	-0.403712
C	 0.027520299	 0.0172908942	 0.0378346282	 0.137194
O	 0.7034608719	-0.4342690754	 1.2109454914	-0.427141
C	-1.3952909111	-0.5530632637	-0.0444229429	-0.194048
C	-1.4375502772	-2.0848304525	-0.0192231507	-0.205804
C	-2.8510188848	-2.6506717148	-0.0208680005	-0.024313
C	-3.6643983694	-2.5800674052	-1.3359316078	-0.074621
O	-3.8247358703	-4.0119443916	-1.3713261324	-0.272363
C	-3.010113622	-4.1787659281	-0.1929604276	-0.090846
H	 1.0755150416	 1.9134855317	 0.021626833	 0.124866
H	-0.3717014948	 1.8876012522	-1.0085620236	 0.116679
H	-0.5409395483	 1.9921268634	 0.7494092683	 0.105315
H	 0.6196447679	-0.4000230903	-0.7869647319	 0.088983
H	 0.2661045032	-0.0316499354	 1.9698583931	 0.275022
H	-1.9827946622	-0.1519946256	 0.7960287831	 0.081781
H	-1.8756860872	-0.1766760537	-0.957423531	 0.096954
H	-0.8908932425	-2.4787855091	-0.8875059436	 0.095887
H	-0.8978181016	-2.4369779662	 0.8672913714	 0.111423
H	-3.4120302632	-2.2656081188	 0.8364382688	 0.074029
H	-4.6294443397	-2.0605099148	-1.2923295396	 0.09823
H	-3.103207381	-2.2091140366	-2.2059478798	 0.092047
H	-2.0763428675	-4.7154680175	-0.4116874785	 0.096323
H	-3.5446191326	-4.7099023923	 0.604075186	 0.098114
