17
gdb 70941	3.64647	1.30877	1.08685	2.6113	74.04	-0.2351	-0.0334	0.2016	1111.7431	0.133862	-421.744593	-421.736599	-421.735654	-421.777186	30.227	
C	-0.0052790751	 1.477082324	-0.0148760972	-0.522863
C	 0.0404917693	-0.0207072233	-0.0881063932	 0.290346
C	 0.5609215657	-0.958793492	-1.2066171586	-0.367913
C	 0.07867811	-1.953221729	-0.1370786224	 0.22727
C	 0.078431375	-3.4354362597	-0.1100707812	 0.021059
O	 0.4946055978	-4.1312722076	-1.0050225556	-0.252561
C	 0.5066234454	-1.0043215523	 1.0414944667	 0.00609
O	-0.7808601904	-1.0409693309	 1.721600062	-0.324105
C	-1.1062522571	-1.0174702397	 0.3020674647	 0.006073
H	 0.9990513836	 1.9070036722	-0.0903375029	 0.127619
H	-0.6088548176	 1.8939348352	-0.8279781739	 0.127619
H	-0.4444124754	 1.7936257769	 0.9367567919	 0.138531
H	 0.0052280505	-0.9532695023	-2.1476860791	 0.110931
H	 1.6364421708	-0.9399908329	-1.3998461028	 0.110936
H	-0.3446256529	-3.8746966266	 0.8202613743	 0.089633
H	 1.4195096179	-1.0228941874	 1.6374073494	 0.105668
H	-2.1531913576	-1.0519999146	-0.0004957219	 0.105666
