19
gdb 76091	2.29248	1.36021	1.06201	4.9459	81.66	-0.2496	0.0363	0.2859	1212.3499	0.15877	-382.040974	-382.031878	-382.030933	-382.075291	33.223	
C	-0.1084883908	 1.5592163293	-0.0040273118	-0.410338
C	 0.012950202	 0.0530923242	 0.0167630258	-0.056742
C	 1.3625546086	-0.6348592207	-0.2096583398	-0.233035
C	 2.5548729005	 0.1422211437	-0.3905020051	 0.308559
N	 3.525037141	 0.7478911606	-0.5661124395	-0.350411
C	 0.6746064613	-0.6731318824	 1.1531655825	 0.033852
N	 1.2588513836	 0.0965890236	 2.2050986706	-0.053903
C	 0.6609578891	-0.0435444234	 3.5309175731	-0.226793
C	 1.9927298779	-0.6386778008	 3.2313605053	-0.21921
H	 0.7363586501	 2.0300832703	 0.5001330567	 0.158767
H	-0.1501210491	 1.9289846939	-1.0331681345	 0.12684
H	-1.0261233585	 1.8722731064	 0.5047928494	 0.119624
H	-0.8148670869	-0.4783043931	-0.4447833593	 0.100699
H	 1.3554136507	-1.556058953	-0.782755083	 0.130355
H	 0.2639206239	-1.6495400277	 1.4274864302	 0.083849
H	 0.5807418975	 0.8727741988	 4.1078840839	 0.126289
H	-0.1782516363	-0.7283025821	 3.641082663	 0.114006
H	 2.0453941309	-1.72212218	 3.1405708596	 0.115016
H	 2.9036768845	-0.1646438676	 3.5828263029	 0.132577
