12
gdb 25398	3.21655	1.40776	0.9792	3.5592	64.45	-0.2795	-0.1248	0.1547	1077.6515	0.079299	-468.875432	-468.86845	-468.867505	-468.907455	24.926	
O	-0.8313755077	 1.2931761151	 0.2480270333	-0.244565
C	 0.252300846	 0.8602386013	-0.0487914065	 0.125729
C	 1.471446063	 1.7385412783	-0.0924206925	 0.318823
N	 2.6221061056	 1.2238189153	-0.4189366571	-0.304413
C	 3.6507727297	 2.1403040239	-0.4181584193	 0.074344
N	 3.597141653	 3.4057915156	-0.1391366597	-0.283862
C	 2.3679550025	 3.9656543337	 0.2111171059	 0.452611
O	 2.1771760762	 5.118945158	 0.4935481682	-0.349716
N	 1.2961081592	 3.0331130427	 0.2157170492	-0.361312
H	 0.4512897549	-0.1937477384	-0.3105936062	 0.136937
H	 4.6225986019	 1.7312183024	-0.6883075112	 0.144281
H	 0.3659524857	 3.357050122	 0.4603015657	 0.291141
