16
gdb 33475	2.24194	1.76469	1.20894	1.7785	81.2	-0.2414	0.0069	0.2483	1049.8113	0.121929	-363.483723	-363.475405	-363.474461	-363.516228	32.374	
C	-0.0016481362	-1.2435739015	-0.0800570668	-0.460436
C	-0.0077257719	-0.0419984352	-0.050076481	 0.340241
C	-0.0073214288	 1.4136906931	 0.0219756682	-0.066706
C	-0.2569490067	 2.0424532843	 1.4479496507	-0.301935
C	 1.1572314712	 2.5955682541	 1.3646654479	-0.004039
C	 2.1440875726	 1.5324940523	 1.1112437211	-0.240843
N	 1.3877411872	 2.0655346389	-0.0419195981	-0.150381
C	-0.8630738649	 1.9833495895	-1.0105192601	 0.271439
C	-1.5838202061	 2.4687125517	-1.8394136484	-0.396579
H	-0.0023026365	-2.3047942311	-0.1262825801	 0.2032
H	-1.0352718306	 2.8035445065	 1.4081428028	 0.133842
H	-0.4688164155	 1.3375866493	 2.2548794609	 0.119036
H	 1.4423401551	 3.6074010483	 1.6314028724	 0.100609
H	 3.1910296866	 1.8157507586	 1.0702985899	 0.127524
H	 1.9577783964	 0.5141655507	 1.4412561661	 0.12798
H	-2.2143325618	 2.8886794405	-2.5836961255	 0.197049
