20
gdb 66684	2.42283	2.04136	1.61744	1.6323	81.84	-0.2096	0.0862	0.2958	953.9513	0.171207	-365.930552	-365.922801	-365.921856	-365.962196	31.306	
C	-0.017953957	 1.4585526283	-0.0266367667	-0.519491
C	 0.0480653561	-0.0362903983	 0.0282456839	 0.30472
C	-0.5977844795	-1.088281385	-0.8744569019	-0.230648
C	 0.4460188399	-2.0753112823	-0.3168751869	-0.002517
C	 1.2750743979	-0.9318405685	 0.3563459307	-0.127945
C	 0.9388654133	-1.5938974238	 1.7036935754	-0.1943
N	-0.2864172769	-2.1748029423	 1.0365901925	-0.192578
C	-1.0508479443	-0.9706083929	 0.5580406816	 0.325065
C	-2.3534743048	-0.5691207967	 1.1694049683	-0.51556
H	 0.6565794314	 1.865300908	-0.7889288592	 0.120269
H	-1.0284451114	 1.8044618017	-0.2691023275	 0.120764
H	 0.2611021462	 1.9056492118	 0.935438317	 0.119687
H	-1.1382059857	-1.0126353154	-1.8090770562	 0.087105
H	 0.8390714284	-2.9853058294	-0.7665317601	 0.074018
H	 2.2691122723	-0.6048035691	 0.0482884378	 0.061977
H	 1.6224049281	-2.404584087	 1.974751443	 0.102637
H	 0.7414631039	-0.9635713446	 2.5773442089	 0.096003
H	-2.2287102264	-0.3206292908	 2.2301984685	 0.121048
H	-2.77200001	 0.3088704808	 0.6673573002	 0.118994
H	-3.0834617316	-1.3817621842	 1.0993989508	 0.130754
