15
gdb 5450	3.39263	1.94374	1.24527	1.4455	79.26	-0.1967	0.0045	0.2012	936.8952	0.118926	-325.543168	-325.535376	-325.534432	-325.575214	29.036	
C	-0.0019221292	 1.5374089807	 0.0725437331	-0.521251
C	 0.0158273258	 0.0406590877	 0.0438221854	 0.183574
C	-0.00010476	-0.7523822659	-1.0994919325	 0.101452
N	 0.0261970225	-2.0742036744	-0.6894367615	-0.313405
C	 0.0575125533	-2.1343113825	 0.6721220946	-0.090809
C	 0.0520041946	-0.8432532057	 1.1544152706	-0.215948
C	-0.0355449037	-0.397527614	-2.4609539228	 0.274696
C	-0.0662211211	-0.1016052812	-3.6301811466	-0.475648
H	 0.8894024496	 1.9415967008	 0.5663138623	 0.126415
H	-0.0370433893	 1.9444330219	-0.9412113305	 0.133349
H	-0.8720512867	 1.9194927194	 0.6188027627	 0.126299
H	 0.0218134876	-2.858706488	-1.3173896268	 0.26626
H	 0.0810411177	-3.0814763357	 1.1869108381	 0.12147
H	 0.0718574227	-0.5591441054	 2.1957951206	 0.096051
H	-0.0936546539	 0.1671888522	-4.6565998768	 0.187496
