16
gdb 97516	4.87003	0.60006	0.53956	7.3478	82.11	-0.2795	-0.0683	0.2112	1974.8859	0.121346	-400.754483	-400.744321	-400.743377	-400.792689	33.672	
C	-0.0105672485	 1.5993027365	-0.0091684342	-0.372254
C	 0.0200467401	 0.060603276	-0.0360214487	-0.32784
C	 0.6899602733	-0.4894921222	-1.2052198133	 0.198494
C	 1.2453638497	-0.9492944585	-2.1744427607	-0.054844
C	 1.9098014209	-1.491750478	-3.3340329868	 0.2156
O	 2.0428185548	-2.6740359031	-3.538254583	-0.256726
C	 2.4410346742	-0.4158340654	-4.3004102913	-0.441718
C	 3.1122693123	-0.9656460991	-5.4714600099	 0.271382
N	 3.6489900798	-1.3732004944	-6.4086470242	-0.293276
H	 1.0025583448	 2.0095637682	-0.0073899219	 0.134781
H	-0.5366186637	 1.994214657	-0.8821269126	 0.134752
H	-0.525072438	 1.9483487165	 0.8900410731	 0.12873
H	 0.5193214651	-0.3225341926	 0.8631638812	 0.151537
H	-1.0021175603	-0.3376661233	-0.0016112849	 0.151537
H	 1.6021827994	 0.2177112664	-4.61271677	 0.179927
H	 3.125899216	 0.2403291459	-3.7499514928	 0.179921
