18
gdb 39028	3.09813	1.79351	1.31345	3.9676	76.2	-0.2373	0.0295	0.2668	978.892	0.151253	-401.956394	-401.949606	-401.948662	-401.987348	27.589	
C	-0.1415751241	 1.3787110655	 0.0815580343	-0.329314
C	 1.2835726639	 0.8878303996	 0.0342236335	-0.150485
C	 1.8922100825	 0.5023712729	 1.4035163019	-0.175239
N	 1.0925059699	-0.6046143402	 1.9742429631	-0.340675
C	 0.2309415168	-0.8942040297	 1.0897848848	 0.424122
O	-0.6023425212	-1.9523110538	 1.0518157655	-0.258176
C	-1.2836149378	-1.9381252877	-0.2282418081	-0.084656
C	-0.4521787126	-1.027998892	-1.1739616365	-0.366941
C	 0.1438511691	-0.0860471778	-0.1526935837	 0.250531
H	-0.5645014694	 1.6942150065	 1.0315473594	 0.122197
H	-0.4927233536	 1.9382957306	-0.7805131162	 0.11166
H	 1.9296686168	 1.2165028458	-0.7713747092	 0.094996
H	 2.9282273238	 0.158983834	 1.2929395155	 0.110332
H	 1.9133009837	 1.3561087652	 2.0917622746	 0.110599
H	-1.3573705462	-2.9728752033	-0.5681869105	 0.12525
H	-2.293924653	-1.5402164832	-0.0790185799	 0.119669
H	 0.3174284047	-1.6157017616	-1.6856882205	 0.12112
H	-1.0797270333	-0.5485723309	-1.9280115479	 0.11501
