21
gdb 102240	2.63867	0.90917	0.79258	2.659	84.91	-0.2456	-0.0112	0.2344	1570.3208	0.178133	-387.08766	-387.076591	-387.075647	-387.124856	39.145	
C	 0.6558318035	-0.7594258313	-1.3779685497	-0.389695
C	-0.0392039513	-0.3700974462	-0.072349674	-0.186079
C	 0.5887899409	-1.0217069114	 1.181290212	-0.125178
C	-0.0740241149	-0.5154382304	 2.4776339072	-0.322356
C	 0.7560667785	-0.7871942404	 3.7315402536	 0.394958
C	-0.0028928212	-0.7970390275	 5.0442162345	-0.47778
O	 1.9511842394	-0.9606185467	 3.6775178809	-0.295574
C	 0.5230523758	-2.481963505	 1.1197048867	 0.348215
C	 0.4296827887	-3.6799300991	 1.0710848548	-0.494013
H	 0.6138599698	-1.8406362694	-1.537030658	 0.133634
H	 0.1805224265	-0.2704715913	-2.2336282759	 0.111993
H	 1.7106793767	-0.4637269663	-1.3666243759	 0.116681
H	 0.0030228127	 0.7181988043	 0.0596185648	 0.094135
H	-1.1012966293	-0.6399600055	-0.1199641574	 0.102687
H	 1.6465903452	-0.7343972802	 1.2344609468	 0.127059
H	-0.1997606434	 0.5760135126	 2.4218390219	 0.123539
H	-1.080799131	-0.931279462	 2.5929093068	 0.117815
H	-0.6628982312	 0.0738302899	 5.1229723643	 0.133753
H	-0.6443232408	-1.6856511402	 5.0837659838	 0.147796
H	 0.6950778086	-0.8181503515	 5.8819235322	 0.142902
H	 0.3735039268	-4.7394204724	 1.0295963707	 0.195508
