22
gdb 111576	3.15179	1.34699	1.23052	1.8115	83.94	-0.2177	0.0722	0.2899	1144.6184	0.196524	-367.163445	-367.155509	-367.154565	-367.19599	31.679	
C	-0.0800721501	 1.605706112	 0.0212382069	-0.379668
C	 0.1178799662	 0.091860709	-0.1193708912	-0.212518
C	 0.6865427629	-0.5493013015	 1.1395610125	 0.045494
C	-0.1283899309	-0.6463504856	 2.452321225	-0.016001
C	-1.5531693852	-1.2239187758	 2.3257766194	-0.2498
C	-0.9033271235	-2.6171645624	 2.2429089356	 0.021691
C	-0.3016109186	-2.962668701	 0.8687115661	-0.248195
C	 0.9003379597	-2.0757149341	 1.2526438563	-0.033215
N	 0.4434329541	-2.0483217477	 2.7204411469	-0.164679
H	 0.8669666748	 2.1090636971	 0.2449870329	 0.116042
H	-0.4810385431	 2.0422889044	-0.8985726882	 0.112956
H	-0.7777245119	 1.8412153461	 0.832337719	 0.119801
H	-0.8380109599	-0.3763042673	-0.3833287094	 0.096032
H	 0.7952292306	-0.1144292749	-0.9587879208	 0.097099
H	 1.6408163674	-0.0662030132	 1.384727893	 0.078619
H	 0.0310493514	 0.1305619311	 3.2032329786	 0.068734
H	-2.1124363057	-1.0966478411	 3.2563953861	 0.108252
H	-2.1849853777	-0.8975468934	 1.4940085772	 0.097221
H	-1.3587842834	-3.4263445186	 2.8179508911	 0.069703
H	-0.0102086413	-4.0148498663	 0.8125591452	 0.10794
H	-0.8781360507	-2.7141919291	-0.027359577	 0.097051
H	 1.897601995	-2.4591086378	 1.0241621945	 0.067441
