20
gdb 62137	4.87248	0.66025	0.63819	3.3461	82.89	-0.2537	0.0267	0.2804	1752.5545	0.168493	-403.147199	-403.136582	-403.135637	-403.184342	37.442	
C	 0.1179337676	 1.3837774657	 0.2945129038	-0.385703
C	 0.0563861954	-0.1123696567	-0.0247962564	 0.015065
C	 0.8111948477	-0.9603655542	 1.0153073291	-0.165694
N	 2.2300877635	-0.6570917622	 1.0925059934	-0.280051
C	 2.8214833962	-0.1162399438	 2.1927491593	 0.15406
O	 2.253754209	 0.1760647612	 3.2233872765	-0.32163
C	-1.4036319439	-0.6204343474	-0.1170313612	-0.359129
C	-2.1651200186	-0.0087850121	-1.198661562	 0.296562
C	-2.7738658393	 0.4995891721	-2.1021122643	-0.435097
H	 1.1518552058	 1.7374497764	 0.3212011326	 0.117466
H	-0.4238218396	 1.9614569013	-0.4587546172	 0.130157
H	-0.3292820263	 1.591383941	 1.2731935553	 0.12597
H	 0.5214021051	-0.2820035841	-1.0061295988	 0.078284
H	 0.41046046	-0.7821938793	 2.0172014141	 0.149362
H	 0.6808402758	-2.0264457408	 0.7872487169	 0.103723
H	 2.8129676652	-0.8573679325	 0.2950199947	 0.24658
H	 3.9095919524	 0.0296032087	 2.0401332866	 0.07422
H	-1.4031385012	-1.7103721818	-0.2511287992	 0.125925
H	-1.9096824903	-0.4318314442	 0.8398437692	 0.134625
H	-3.3230694249	 0.9443497829	-2.8944894523	 0.195304
