20
gdb 108849	3.04137	1.17435	0.92636	2.9977	84.93	-0.2404	-0.022	0.2184	1332.2083	0.171026	-403.193049	-403.183885	-403.182941	-403.227115	34.127	
C	-0.2408519133	 1.5565952473	-0.0551624823	-0.379053
C	 0.0633065825	 0.050602823	 0.0403959412	-0.290357
C	 0.7748798177	-0.4749586987	-1.1669473843	 0.279382
C	 2.0329448108	-0.9009525802	-1.3089971186	-0.235041
C	 2.2798937957	-1.3358809029	-2.725633542	 0.065596
C	 2.6905775863	-2.7970993892	-2.8921891025	-0.391929
O	 1.0173343444	-1.1061853085	-3.3805838103	-0.252429
C	 0.1136708184	-0.6014877558	-2.4833174084	 0.335683
N	-1.0898247382	-0.3035115217	-2.7483090436	-0.551641
H	 0.6822528261	 2.1388335287	-0.1408480005	 0.11115
H	-0.8629572824	 1.7619009411	-0.9290033191	 0.153091
H	-0.77440468	 1.8950282664	 0.8380350321	 0.11187
H	 0.6632478121	-0.1566611436	 0.9330212244	 0.098071
H	-0.8826727172	-0.4924166991	 0.1481254553	 0.126776
H	 2.7948642461	-0.9516112044	-0.5411472202	 0.112263
H	 3.0245148082	-0.691525478	-3.2158654678	 0.102059
H	 1.9577620357	-3.4564049489	-2.4189425645	 0.130078
H	 2.7612537965	-3.052106599	-3.952852436	 0.133123
H	 3.6675002033	-2.9696310494	-2.4294947357	 0.120603
H	-1.3015089529	-0.4946359969	-3.7285379673	 0.220703
