21
gdb 70327	2.14993	1.9972	1.34979	1.0097	81.03	-0.2349	0.0779	0.3128	1042.7629	0.182872	-387.07185	-387.063537	-387.062593	-387.103899	34.187	
C	 0.0319916672	 1.5059628197	-0.0876819038	-0.479689
C	 0.0825513401	-0.004229225	-0.0538592523	 0.277031
C	-0.6255312095	-0.7542596485	 1.0512351611	-0.347134
C	 0.8830979221	-0.7783565817	 0.9774388661	-0.065943
C	 1.5931040989	-1.9492546878	 0.2884005457	-0.253628
C	 1.2017506855	-1.8900059433	-1.1897995474	-0.071087
C	-0.2421364208	-2.1181030863	-1.6063659644	-0.368076
C	 0.2814051908	-0.7185206217	-1.4005604243	 0.340456
O	 0.4708540072	 0.0951776015	-2.5223341628	-0.460454
H	 0.8889123441	 1.9214914978	-0.6250136082	 0.130027
H	-0.8762142159	 1.869831156	-0.58384139	 0.10385
H	 0.0320800311	 1.9108153186	 0.9290479264	 0.109499
H	-1.0645024914	-0.1530672418	 1.8421736565	 0.102577
H	-1.1915541414	-1.6527586563	 0.8343611445	 0.106735
H	 1.4258969378	-0.25466652	 1.7583369091	 0.079737
H	 2.6768260209	-1.8179076648	 0.3780204554	 0.104156
H	 1.3540878142	-2.9150429195	 0.7496627709	 0.100491
H	 1.9577515485	-2.1173791533	-1.9330978148	 0.092249
H	-0.3830313357	-2.4131641247	-2.6414117593	 0.107957
H	-0.9516349232	-2.5630521764	-0.9185473779	 0.109773
H	-0.3960124506	 0.3632243276	-2.8461322105	 0.281473
