12
gdb 131072	7.02164	0.86379	0.77754	0.761	58.51	-0.2395	-0.0345	0.205	1320.083	0.077826	-505.99714	-505.989342	-505.988398	-506.030283	27.091	
O	 0.015768371	-0.0122334147	 0.0515371794	-0.232401
C	 0.0072239394	 1.1607087931	-0.1156151824	 0.173872
O	 1.0797867933	 1.9388108632	 0.2982630444	-0.22846
C	 0.9548730884	 3.2778507874	 0.2076337378	 0.519522
N	-0.1350416095	 3.9588645146	 0.3301474542	-0.302984
N	 0.291354501	 5.2650680114	 0.1451159888	-0.30358
C	 1.650546083	 5.3990190553	-0.0412583368	 0.476586
O	 2.3269821333	 6.3870735753	-0.1922395775	-0.403566
N	 2.0584351978	 4.047724322	-0.0173588583	-0.426109
H	-0.7765332342	 1.7657334501	-0.5916676158	 0.143854
H	-0.3586204724	 6.0224771748	 0.2599265688	 0.289491
H	 3.008167719	 3.7359728576	-0.1273424826	 0.293775
