18
gdb 29703	2.45722	1.54261	0.96088	1.6309	76.78	-0.16	0.0643	0.2244	1195.8509	0.14754	-435.282212	-435.27204	-435.271096	-435.316996	36.483	
C	 0.0381972434	 1.4636939309	-0.0193674922	-0.343243
N	 0.0332193009	 0.0184264511	-0.004115015	-0.041803
C	 0.0697085319	-0.7872145656	-1.1060914789	 0.294991
N	 0.1721236014	-0.2149773785	-2.390564437	-0.60805
C	 0.0832141365	-2.1076503584	-0.6942184059	-0.388696
C	 0.0483104029	-2.0860437705	 0.7273544486	 0.283006
O	 0.0468827347	-3.1487155862	 1.5938089353	-0.460527
C	 0.0050314901	-0.7783660314	 1.1482720474	 0.135978
N	-0.0363443332	-0.1885309607	 2.4294997468	-0.614456
H	 0.7788266623	 1.8247993508	-0.7378680741	 0.141059
H	-0.9415961128	 1.8758494512	-0.2949796766	 0.114775
H	 0.2832549663	 1.8092171704	 0.985212616	 0.15505
H	-0.6791888363	 0.2608027166	-2.6769798993	 0.240699
H	 0.3730339878	-0.9296991145	-3.0788034552	 0.243802
H	 0.1020982703	-2.9750624028	-1.3379179265	 0.073485
H	 0.0950841594	-3.9565705622	 1.0759071442	 0.291563
H	 0.7423942334	-0.4940433323	 3.0042302863	 0.242603
H	-0.885374179	-0.4283990077	 2.9325756363	 0.239763
