15
gdb 29012	2.6353	1.55969	0.98064	3.4646	79.19	-0.2293	-0.0747	0.1546	1120.4952	0.114465	-416.874831	-416.867139	-416.866195	-416.907064	28.946	
N	-0.052819791	 1.4086951758	-0.1124908352	-0.595444
C	 0.0266129347	 0.0295598447	-0.043680433	 0.197167
C	-1.1634975261	-0.7310589247	-0.0420468024	-0.029097
N	-1.2113509281	-2.0512245225	-0.0177331341	-0.262193
C	-0.04974199	-2.7266147415	 0.0111455049	-0.020103
C	 1.1760145581	-2.0898960462	 0.0090082054	-0.169267
C	 1.2389867486	-0.6900242328	-0.0259014018	 0.131303
C	 2.5629893891	-0.037016096	-0.0668767154	 0.088343
O	 3.6171163682	-0.6291009117	-0.0063330994	-0.263533
H	 0.702554785	 1.9452630656	 0.2813832938	 0.261179
H	-0.9577613966	 1.7993847126	 0.1026813155	 0.259086
H	-2.119276949	-0.2068681065	-0.0611043524	 0.0993
H	-0.1214237591	-3.8094699286	 0.0359347939	 0.112601
H	 2.1071235991	-2.6443655168	 0.0275702339	 0.129325
H	 2.557044677	 1.0694496885	-0.1764270738	 0.061333
