14
gdb 25825	4.21445	1.1265	0.88965	5.2964	68.77	-0.221	-0.0238	0.1972	1209.9513	0.10233	-470.077586	-470.069392	-470.068447	-470.110466	30.172	
N	-0.1933636261	 1.3342251409	-0.0475860063	-0.545318
C	 0.0102331508	-0.0199404651	-0.0320102654	 0.298882
O	 1.1155097757	-0.5334825259	-0.0670608948	-0.366516
C	-1.206876096	-0.8355313534	 0.0050297873	 0.237769
C	-1.4203110647	-2.174383905	 0.018708143	-0.158455
N	-2.7757489394	-2.44757682	 0.0535534048	-0.334029
C	-3.3262696913	-1.2660123108	 0.0672880283	 0.461154
N	-4.653864719	-0.9675182124	 0.1667708231	-0.588204
O	-2.4649660479	-0.2295749841	 0.0395413039	-0.230816
H	 0.6191476863	 1.9191382793	 0.0574451661	 0.262596
H	-1.0988198321	 1.7236608266	 0.1510051316	 0.262574
H	-0.6771084454	-2.9549116882	 0.0007323557	 0.151555
H	-5.2607017923	-1.7419340141	-0.0550814246	 0.279173
H	-4.9393606187	-0.0834982178	-0.2255914028	 0.269636
