17
gdb 27686	2.73689	1.31615	0.89866	1.3477	89.53	-0.2026	-0.0112	0.1914	1283.9983	0.133852	-384.708499	-384.699298	-384.698354	-384.742392	33.585	
C	 0.1434555484	 1.4539137198	 0.0053938245	-0.502221
C	-0.0539330773	-0.0188904459	-0.0099767559	 0.353459
C	-1.1578591953	-0.8133469883	-0.10010208	-0.351723
C	-0.706123581	-2.1704627338	-0.0622569608	 0.166375
C	-1.5344015563	-3.41286491	-0.1296040455	-0.518735
C	 0.65942039	-2.1003666409	 0.0497433986	 0.12098
O	 1.0628194324	-0.7847544539	 0.0820959412	-0.213172
C	 1.645226634	-3.0969656513	 0.1312334404	 0.259153
C	 2.4760765962	-3.968080976	 0.1999279375	-0.438613
H	 0.7747303778	 1.7806756145	-0.8285985193	 0.142947
H	-0.8208864143	 1.9600799776	-0.0739411599	 0.136161
H	 0.6304612977	 1.7816140786	 0.9307443569	 0.142948
H	-2.1791653413	-0.473589311	-0.1840657578	 0.110021
H	-2.109941421	-3.4581586945	-1.0611966749	 0.131794
H	-0.9036133368	-4.3034872626	-0.0772147357	 0.138689
H	-2.2543903987	-3.4571324216	 0.6955123693	 0.131788
H	 3.2099453156	-4.7327810105	 0.2606010514	 0.190151
