19
gdb 38905	3.55134	1.51736	1.20177	1.6367	81.16	-0.2241	0.0139	0.238	1052.1909	0.162118	-385.882085	-385.87512	-385.874176	-385.913412	28.452	
C	-0.0093417712	 1.500544543	 0.1264698167	-0.272069
C	 1.2993278742	 0.7733182049	-0.021779927	-0.029899
C	 2.0977453239	 0.4674826952	 1.2627335831	-0.280722
C	 1.4493135617	-0.8365774878	 1.779476007	 0.101174
O	 1.3746189216	-1.0445622566	 3.1780991796	-0.281095
C	 0.0600511324	-1.5379903363	 3.4726443335	-0.113694
C	-0.7883592369	-1.1556904091	 2.27583721	-0.286036
C	 0.0198581875	-0.7432661273	 1.3068612155	 0.337714
C	-0.0170905723	-0.0120127896	 0.0163803782	-0.177108
H	-0.2526811534	 1.9453446636	 1.0860236279	 0.116474
H	-0.3776169865	 2.0537997493	-0.7316378777	 0.111224
H	 1.841286163	 0.8877663394	-0.9532775449	 0.086528
H	 3.1648799655	 0.3537722995	 1.0580308939	 0.10172
H	 1.982132313	 1.2573745386	 2.012300037	 0.110037
H	 1.9573576074	-1.6921744233	 1.2956583512	 0.070569
H	 0.0882183158	-2.6287037505	 3.6415220441	 0.0979
H	-0.2891644936	-1.0741785344	 4.4046358347	 0.110003
H	-1.8704513113	-1.1854794305	 2.2839229903	 0.101451
H	-0.4413632206	-0.4643760683	-0.8726388031	 0.09583
