18
gdb 44083	3.76919	1.45941	1.20991	3.8435	76.04	-0.2382	-0.0001	0.2381	1035.8251	0.148933	-401.925481	-401.918252	-401.917308	-401.957149	28.766	
O	 0.124186348	 0.0033364366	 0.019569699	-0.31931
C	 0.0006448236	 1.192652002	-0.0299130745	 0.382562
C	-1.1759601464	 2.1932448893	 0.0812636963	-0.496258
C	-0.0757392163	 3.2339382508	 0.3339264248	 0.382234
C	 0.0975122314	 4.6679206073	-0.1728171214	-0.304279
C	 1.0258049639	 4.9662787385	 1.0492778669	-0.221116
C	 0.7400461237	 3.552995336	 1.6414785755	-0.10466
C	 1.7536161879	 2.4529039122	 1.2192629814	-0.203819
N	 0.9757391781	 2.2237611198	-0.0468150766	-0.155468
H	-1.7412909062	 2.3518761714	-0.8417436481	 0.137548
H	-1.8717036848	 1.9734519074	 0.8935267999	 0.13774
H	 0.5332865693	 4.7638256614	-1.1705025512	 0.113382
H	-0.8344537585	 5.2396002234	-0.1392690177	 0.10916
H	 2.0755785158	 5.141767453	 0.8011879403	 0.109461
H	 0.6801081277	 5.7890494173	 1.6780846566	 0.109193
H	 0.3340339359	 3.5082160492	 2.6524650903	 0.079694
H	 2.7771494061	 2.7931608697	 1.0396663748	 0.115432
H	 1.7795417607	 1.5600270348	 1.8504663438	 0.128504
