15
gdb 21260	7.33019	1.30804	1.12576	2.9269	65.18	-0.2196	0.0022	0.2218	1037.7801	0.119348	-395.969985	-395.962199	-395.961255	-396.002485	27.02	
C	 0.0108483406	 1.4125507775	 0.0699097018	-0.237944
O	 0.0486054539	-0.0107272787	-0.0275061466	-0.270179
C	 0.6271327106	-0.6462885447	 1.0018651911	 0.40822
C	 0.7843705271	-2.0106887599	 1.1398476692	-0.228821
N	 1.4177502306	-2.1327339651	 2.3350459331	 0.091453
C	 1.8487019955	-3.3365143111	 3.0151306677	-0.328088
N	 1.6361465649	-0.9363131887	 2.8945539529	-0.160242
N	 1.1540235492	-0.0242521475	 2.0821578745	-0.284534
H	 1.0207428864	 1.8302626766	 0.1304464562	 0.137056
H	-0.4859266423	 1.7575592997	-0.8378333358	 0.127562
H	-0.5508480383	 1.7322521785	 0.9532694665	 0.137052
H	 0.5134664367	-2.8486254908	 0.5227393058	 0.142648
H	 2.5713885963	-3.8861748555	 2.405501156	 0.147654
H	 2.3185015982	-3.0261484388	 3.9482632162	 0.170503
H	 0.9943205605	-3.9838606417	 3.2320040716	 0.14766
