15
gdb 123933	3.57232	1.63738	1.16255	5.0235	66.81	-0.2092	0.0061	0.2152	987.4546	0.116217	-453.925375	-453.918859	-453.917915	-453.956297	25.735	
C	-0.0236884997	 1.4317672889	 0.0807666796	-0.195825
C	 1.420289085	 1.9656243018	 0.0204114643	-0.091301
O	 2.2315013416	 1.4316965382	 1.0920883693	-0.257613
C	 1.9660248314	 0.1374614917	 1.2688472188	 0.486267
C	 0.9366994494	-0.6000194369	 0.7602779918	 0.02571
N	-0.1111574611	-0.0305503071	-0.0018064396	-0.401581
C	 1.1723741301	-1.8787122915	 1.3246501563	-0.050295
N	 2.2457380429	-1.9050164656	 2.0825886446	-0.156758
O	 2.7542092798	-0.5818206041	 2.0604178822	-0.228857
H	-0.4728114021	 1.7519931852	 1.0283098624	 0.135236
H	-0.604275817	 1.8783929234	-0.7307238862	 0.119104
H	 1.8897809249	 1.6982210809	-0.9345281882	 0.118277
H	 1.4516614988	 3.0498079523	 0.1428505386	 0.131511
H	-0.1016757889	-0.3472621878	-0.9656276711	 0.234359
H	 0.6040089847	-2.7902681992	 1.2003592672	 0.131765
