16
gdb 72312	2.32331	1.94511	1.54792	3.2395	69.83	-0.2147	-0.0572	0.1575	924.0252	0.121339	-437.739412	-437.731427	-437.730482	-437.771242	31.088	
C	 0.0221169698	 1.4621798087	 0.0572420327	-0.495206
C	-0.0696233076	-0.0307742551	-0.1173187625	 0.206687
C	 0.8270785374	-0.7784770569	-1.1425664567	-0.215898
N	 0.5333374653	-2.2291780557	-0.876896615	-0.222436
C	-0.5249692397	-2.137536008	-0.1900605801	 0.171431
O	-0.5451424548	-2.3726058551	 1.1969163931	-0.265469
C	-0.6904833137	-0.885329644	 1.2011197765	-0.066671
C	-1.3380779495	-0.77767795	-0.1002173234	 0.268276
O	-2.5647453005	-0.4028834301	-0.5813695337	-0.458934
H	 1.0163849245	 1.7588127439	 0.4069923198	 0.131074
H	-0.163143731	 1.9703055524	-0.8961247404	 0.137567
H	-0.7185826066	 1.833646329	 0.7717312157	 0.128604
H	 0.6392577873	-0.4286289431	-2.1695289909	 0.116244
H	 1.8970850171	-0.6680443459	-0.9378955179	 0.133257
H	-0.816306166	-0.4328276764	 2.1775638217	 0.133119
H	-3.2420885518	-0.9545275337	-0.171885109	 0.298354
