11
gdb 133395	2.34849	1.88129	1.04454	1.7577	59.82	-0.2482	-0.074	0.1743	989.3622	0.064194	-537.884315	-537.877361	-537.876417	-537.916054	25.503	
F	 0.0274125011	 0.0525766501	 0.0052299122	-0.01025
C	-0.057248317	 1.3564984708	-0.0325344182	 0.296476
C	-1.2154287893	 2.0353234143	 0.0631550426	 0.011119
F	-2.3623284156	 1.3903954885	 0.2049239006	-0.028897
C	-1.1895978993	 3.4794533312	 0.0089286705	 0.186843
N	-2.2495600012	 4.1956309327	 0.0931548611	-0.526991
C	 0.1888262894	 3.9733826377	-0.1514417283	-0.009463
N	 1.2761060389	 3.2963401104	-0.2398548889	-0.050946
O	 1.157174957	 1.9067532082	-0.1779267414	-0.246166
H	-2.0201924858	 5.1893685	 0.0339484376	 0.223832
H	 0.3502318717	 5.048070176	-0.2064840479	 0.154443
