16
gdb 27303	3.21178	1.33323	0.94758	5.3492	75.52	-0.2118	-0.0033	0.2085	1179.4343	0.125214	-437.957721	-437.949481	-437.948536	-437.990292	31.339	
C	-0.0281542911	 1.5096837927	 0.0060294654	-0.472038
C	-0.0056475237	 0.0109305379	-0.0181483338	 0.131866
C	-0.0342947846	-0.7032673643	-1.1640122911	-0.069435
N	-0.0125461192	-2.0824637224	-1.1652225575	-0.375891
C	 0.0391009923	-2.778949645	 0.0030589939	 0.504112
O	 0.0530032741	-4.1159720514	-0.2057469665	-0.423724
C	 0.0706714755	-2.1404281242	 1.2015146628	-0.421659
C	 0.0506467038	-0.6877034484	 1.2856351611	 0.33303
O	 0.0779113778	-0.0684329873	 2.3476285679	-0.40162
H	 0.8614111459	 1.896974745	 0.513698297	 0.141784
H	-0.0760280635	 1.9341824716	-1.0007656375	 0.102902
H	-0.8848068613	 1.8689837584	 0.5855998352	 0.142076
H	-0.0757608989	-0.2483777238	-2.1466695318	 0.126685
H	-0.0345231642	-2.6022021157	-2.0271391935	 0.270594
H	 0.0894084072	-4.5608023405	 0.6478601792	 0.315786
H	 0.1117638499	-2.7052213325	 2.1259095593	 0.095531
