22
gdb 59471	2.92142	1.01929	0.97311	1.6939	82.19	-0.244	0.0865	0.3305	1380.217	0.193346	-404.307413	-404.297635	-404.296691	-404.342499	36.112	
C	 0.7276971897	 0.8770003299	-0.394750411	-0.390839
C	 0.1167273241	-0.122826789	 0.598087486	-0.018746
C	-0.0906408418	 0.5089905619	 1.9831462041	-0.393043
C	-1.2072914021	-0.6360868388	 0.0705733543	 0.08493
O	-1.1979092971	-1.4983887861	-1.0821003604	-0.275047
C	-1.6738842345	-2.0303203974	 0.160026521	 0.011553
C	-0.867562457	-3.1504233489	 0.7519630836	-0.033699
C	-0.6518737422	-4.3849703647	-0.0446344296	-0.240324
N	 0.4639609576	-3.4577237752	 0.2171911627	-0.314253
H	 1.7029938329	 1.2286492443	-0.0437697407	 0.113821
H	 0.862327975	 0.4183174198	-1.3785783114	 0.127798
H	 0.0811364046	 1.7542311952	-0.5173827774	 0.111497
H	 0.8003545497	-0.9707771249	 0.7058371612	 0.103929
H	-0.7855347435	 1.3556306068	 1.9321920449	 0.114067
H	-0.4948664397	-0.2140979079	 2.6987989863	 0.117097
H	 0.8572024807	 0.8829001775	 2.3818231473	 0.119418
H	-1.9835973691	 0.1322569793	 0.0104640891	 0.087262
H	-2.7539863661	-2.1920696806	 0.1883895068	 0.095035
H	-0.9512174676	-3.240814387	 1.8337253829	 0.097709
H	-0.5797311911	-5.3484379615	 0.4514715565	 0.118138
H	-1.0675390121	-4.4133988109	-1.048534726	 0.121702
H	 0.5938976299	-2.882957222	-0.6145811901	 0.241994
