16
gdb 70982	3.61584	1.28815	1.15801	2.6394	69.22	-0.2263	-0.0378	0.1885	1060.0188	0.123275	-437.806141	-437.798377	-437.797433	-437.838648	29.733	
O	-0.0599108546	 1.3409598646	-0.0685998248	-0.457982
C	 0.0936841974	-0.0253745844	-0.0427617325	 0.389382
C	 1.1509639474	-0.8631520606	-0.7570048927	-0.312942
C	 0.19632149	-2.0588017909	-0.4192135149	 0.231348
N	 0.349136116	-2.1522041456	 1.0848658976	-0.36989
C	-0.4481827269	-0.9013569956	 1.0997067343	-0.09732
C	-1.0018365001	-1.0343816171	-0.2974054062	-0.207699
C	 0.2636086863	-3.3175370532	-1.2082358031	 0.025885
O	-0.381028683	-3.5339375613	-2.2033892539	-0.247457
H	 0.5199247719	 1.7284307842	 0.5970694662	 0.291495
H	 1.1616335742	-0.6544869035	-1.8289639212	 0.125209
H	 2.1627590669	-0.9311972334	-0.3474424107	 0.105932
H	-0.274830443	-2.8981733843	 1.3995636955	 0.218352
H	-0.890531542	-0.4790450546	 1.992856713	 0.103125
H	-1.9808271795	-0.963473215	-0.7496984166	 0.115279
H	 0.985277959	-4.0638148693	-0.80214815	 0.087284
