19
gdb 68813	2.84692	1.20695	1.02858	2.9403	77.28	-0.2468	-0.0275	0.2193	1225.272	0.155877	-423.013551	-423.004175	-423.00323	-423.047809	34.405	
C	-0.1508588774	 1.5373844249	 0.0529129448	-0.501934
C	 0.1661405706	 0.0785154915	 0.0163467932	 0.349295
C	 0.7049378328	-0.7495971026	-1.1603184601	-0.320134
C	 1.3234904324	-1.766421567	-0.1280545738	-0.145283
C	 2.8249563933	-1.7982845565	-0.1827650098	 0.161532
O	 3.4990782054	-2.7964183205	-0.1656984048	-0.258064
C	 0.7453898141	-0.8618815079	 1.0019049885	 0.335965
C	 1.2363536409	-0.7268523369	 2.4064033121	-0.504639
O	-0.6682410377	-0.8189050137	 0.7714272887	-0.319349
H	 0.6811299219	 2.125699408	-0.3472117873	 0.126201
H	-1.0380270929	 1.7540653749	-0.5529058313	 0.136575
H	-0.353333232	 1.86435666	 1.0761471562	 0.135623
H	-0.0503670086	-1.1605531928	-1.8333289606	 0.119569
H	 1.4705875575	-0.2284746263	-1.7437533761	 0.110248
H	 0.9284576855	-2.7837699226	-0.138888178	 0.099751
H	 3.301643519	-0.7895104766	-0.2438742186	 0.066893
H	 2.3138595205	-0.534796566	 2.4312425017	 0.129822
H	 0.7212362756	 0.092646159	 2.9141354993	 0.136275
H	 1.046841119	-1.6478340488	 2.969018426	 0.141653
