21
gdb 109741	2.6276	1.08992	1.01252	3.2566	80.9	-0.2396	-0.0241	0.2155	1339.914	0.180411	-424.242222	-424.232204	-424.23126	-424.277437	36.781	
C	-0.0950853467	 1.5366430063	-0.2610464189	-0.376622
C	-0.0559892508	 0.1145002381	 0.3135347525	-0.215768
C	-1.3942727489	-0.5770874695	 0.1563022827	-0.054667
C	-1.8158326597	-1.2192356929	-1.116647816	 0.127049
O	-0.9866477778	-1.2948402214	-2.2177124652	-0.422141
C	-1.5557161988	-2.1203326053	 0.1186256304	-0.24428
C	-0.3918777805	-3.0244670157	 0.0658536192	 0.420601
C	-0.4683991505	-4.2882812134	 0.8969905231	-0.479539
O	 0.5885364992	-2.7972669878	-0.6364452835	-0.369139
H	 0.8642793212	 2.042795863	-0.1168398172	 0.111856
H	-0.3092695699	 1.5093324657	-1.3334197049	 0.136572
H	-0.8687339887	 2.1434968649	 0.2226175774	 0.108448
H	 0.7279156137	-0.46213247	-0.1817083369	 0.127086
H	 0.208771629	 0.1458901022	 1.3776628263	 0.095007
H	-2.1997284622	-0.1096973337	 0.7194536302	 0.094005
H	-2.8566351925	-1.1339013402	-1.4161099508	 0.10865
H	-0.1656228346	-1.7368976182	-1.9300446968	 0.310074
H	-2.4204314531	-2.5131588764	 0.6424544987	 0.090704
H	-1.3337886237	-4.8875090249	 0.5915139487	 0.145315
H	 0.4442017865	-4.8718181712	 0.772084262	 0.14363
H	-0.6111299612	-4.0398938395	 1.9545780788	 0.143159
