20
gdb 119286	2.10488	1.27083	0.9309	3.5469	80.27	-0.2367	0.0263	0.263	1341.6591	0.171492	-399.304619	-399.295105	-399.294161	-399.339308	34.718	
C	-0.1957518717	 1.5677477284	 0.1789370628	-0.39081
C	-0.0120816298	 0.0544903292	 0.1222040664	-0.132482
N	-1.3004903086	-0.6056204293	-0.1027494445	-0.334223
C	-1.2678637473	-2.0561194361	-0.1428976789	 0.156382
C	-1.0270065208	-2.8120825674	 1.219797386	-0.208913
N	-2.4955651809	-2.8710036096	 1.3901500233	-0.319391
C	-2.7044076401	-2.6584634647	-0.0586958674	-0.209933
C	-0.4468431773	-2.5199951604	-1.2617276058	 0.280551
N	 0.2038022081	-2.9187533515	-2.129798845	-0.351237
H	 0.7682065801	 2.0672049215	 0.3106205746	 0.121279
H	-0.6575469134	 1.9342616318	-0.7419031185	 0.133071
H	-0.8371999049	 1.8576011548	 1.0193814196	 0.114126
H	 0.6475420627	-0.2087276215	-0.7124098567	 0.132081
H	 0.4899726475	-0.2930427847	 1.0423165549	 0.085771
H	-1.9604051333	-0.330440693	 0.6193414761	 0.232733
H	-0.5373583456	-3.783162361	 1.0709401443	 0.111402
H	-0.4948698566	-2.2526766642	 1.9955295097	 0.114604
H	-2.8555784633	-3.7436317963	 1.7588873451	 0.228349
H	-3.5103461358	-1.9651189937	-0.3190575965	 0.120203
H	-2.801459799	-3.5731223724	-0.6566207395	 0.116438
