17
gdb 52274	3.34198	1.02714	0.81794	5.6576	71.73	-0.2576	0.0173	0.2748	1353.6187	0.13594	-455.155028	-455.145988	-455.145044	-455.190246	31.383	
N	-0.2678794354	 1.0894197539	 0.1621582527	-0.443008
C	-0.5739092624	-0.1096410237	 0.4075472774	 0.109799
O	-0.4444792981	-1.0330490393	-0.5780144338	-0.189514
C	-0.7274438203	-2.3862611135	-0.2473359049	-0.109972
C	-2.224567467	-2.6765156221	-0.1484097955	-0.154423
C	-2.6532346308	-4.1724327349	-0.0405723838	-0.186843
N	-3.3063768984	-3.8260084941	 1.2247339196	-0.316533
C	-2.8925639262	-2.5197857454	 1.2483504661	 0.426071
O	-2.9905068726	-1.6440854143	 2.0683895314	-0.36038
H	-0.4268206046	 1.6567854007	 0.9926920786	 0.230448
H	-0.9643570237	-0.5108827725	 1.3482919602	 0.125561
H	-0.2960810896	-2.9694554284	-1.0659310659	 0.128088
H	-0.2120398665	-2.6779874452	 0.6781213097	 0.115163
H	-2.7536284978	-2.1305927315	-0.933156034	 0.126448
H	-3.3328150554	-4.5274110568	-0.8201808372	 0.124322
H	-1.8195994589	-4.8754574618	 0.0677892365	 0.117929
H	-3.7458476825	-4.3951765712	 1.9329991927	 0.256842
