21
gdb 60927	2.55216	1.10072	0.88463	2.5737	80.11	-0.2596	-0.0338	0.2258	1378.9345	0.179845	-424.2233	-424.21299	-424.212046	-424.258967	37.228	
C	-0.8236510711	 1.1943164561	-1.50910459	-0.404457
C	-0.153325013	-0.0397770634	-0.9435983552	-0.034531
C	 1.3483011513	-0.2073014003	-0.8487769107	-0.033038
C	 2.3341373718	 0.8314996504	-1.346342296	-0.413687
C	 0.5182789409	-0.0554187769	 0.4156644969	-0.049545
C	 0.547684376	 1.1809355938	 1.2993642213	 0.035596
O	-0.6850786674	 1.3732480612	 1.9451208568	-0.439669
C	 1.6582238535	 1.0480578072	 2.3245661897	 0.134938
O	 1.4413406885	 1.0944655046	 3.5117313752	-0.263905
H	-0.2670765026	 2.1133748012	-1.3115904788	 0.114603
H	-0.9345285175	 1.1094400728	-2.5956189743	 0.11454
H	-1.8207527921	 1.3205298282	-1.0758033246	 0.135746
H	-0.6976554885	-0.952812628	-1.1717755272	 0.087955
H	 1.7008573577	-1.2221419184	-1.0173371739	 0.08697
H	 1.9777301356	 1.856831781	-1.2248328187	 0.119594
H	 3.2924621731	 0.75053301	-0.8203418746	 0.117159
H	 2.5349352154	 0.6846520612	-2.4132718819	 0.123082
H	 0.3702456425	-0.9610907657	 0.999083351	 0.089877
H	 0.7999526099	 2.0663763489	 0.6922682658	 0.085827
H	-0.4821648907	 1.3846357448	 2.8939718692	 0.292256
H	 2.6800608168	 0.8962806513	 1.92213769	 0.10069
