19
gdb 41655	3.15099	1.96021	1.62105	1.3878	76.98	-0.2418	0.0942	0.336	885.7648	0.163145	-385.843907	-385.837753	-385.836809	-385.874025	26.706	
C	-0.0014199804	 1.5870769048	-0.004647309	-0.105233
O	 1.2650371256	 2.2190569131	-0.0761670926	-0.241674
C	 2.0562519037	 1.7629396798	-1.1598489644	-0.105232
C	 2.2050101179	 0.2453922191	-1.173514795	-0.018761
C	 2.4992545783	-0.4932147849	 0.1360375932	-0.064517
C	 1.1635140618	-0.6073464254	 0.8859616618	-0.064518
C	 1.5248193581	-1.598390716	-0.1945549204	-0.104824
C	 0.8753680358	-0.5678138925	-1.1945077632	-0.092513
C	 0.1069206671	 0.0660769	 0.0043935643	-0.01876
H	-0.46659907	 1.9572746016	 0.9153638919	 0.104061
H	-0.6392311414	 1.9015651149	-0.8509820002	 0.079735
H	 1.6237938154	 2.0949883775	-2.1214682467	 0.079736
H	 3.0278273256	 2.2559305433	-1.0464477109	 0.104062
H	 2.8814461279	-0.0741777264	-1.9727167117	 0.066716
H	 3.4395819649	-0.5684664703	 0.6670432413	 0.08194
H	 1.1423789085	-0.7647461056	 1.9567670598	 0.08194
H	 1.618172234	-2.6740310738	-0.191974385	 0.088813
H	 0.3688064837	-0.7932326461	-2.1311128814	 0.062313
H	-0.8768516167	-0.3953885432	 0.1372734482	 0.066717
