13
gdb 133317	2.38074	1.87956	1.05111	4.1485	64.97	-0.2313	-0.0295	0.2018	1021.0967	0.089644	-494.048721	-494.04129	-494.040346	-494.080373	28.558	
N	-0.0355120283	 1.3607648404	-0.1421227675	-0.565536
C	-0.0089127676	-0.0103119676	-0.0578774743	 0.307949
C	-1.1888274002	-0.7602073313	-0.0837024441	 0.086869
F	-2.3924295323	-0.1526939233	-0.126392638	-0.092392
C	-1.1156056487	-2.1328783386	-0.0567131258	 0.273629
O	-2.2001298105	-2.9336549864	-0.076307741	-0.425924
C	 0.1784576249	-2.6791134045	-0.005504219	-0.062645
N	 1.2707778818	-1.9323355259	 0.0260326247	-0.203283
N	 1.1895078418	-0.6058493681	 0.0063780015	-0.288749
H	 0.8339147509	 1.80029329	 0.1224643332	 0.266801
H	-0.8697836239	 1.8230680021	 0.1821911473	 0.261394
H	-2.9918942319	-2.3823866846	-0.1168009514	 0.311389
H	 0.311682834	-3.7553545122	 0.0156714344	 0.130497
