20
gdb 82138	3.24555	1.09988	0.94797	2.9402	79.56	-0.2171	-0.022	0.1951	1283.0538	0.169296	-403.105623	-403.096624	-403.09568	-403.140017	33.467	
C	-0.1939953962	 1.6701294274	 0.1154968127	-0.419356
C	-0.0332872433	 0.1573184874	 0.0630812198	 0.046902
C	 0.3383090912	-0.5104818146	-1.268436322	-0.092261
C	 1.7276495034	-0.1107405712	-1.7036058155	-0.301321
C	 1.556152942	-1.0938138274	-0.5754408497	 0.000737
N	 1.186770304	-0.4727551094	 0.6898718345	-0.111575
C	 2.1638114526	 0.3073586287	 1.4209905835	-0.24115
C	 1.7219830674	 0.5053382446	 2.8628564247	 0.163131
O	 1.8991866114	 1.5085796325	 3.50351516	-0.243197
H	 0.6221256865	 2.1971953498	-0.3859996069	 0.122157
H	-1.1286179713	 1.9516308253	-0.3804179568	 0.123135
H	-0.2449734399	 2.0305832634	 1.1484395158	 0.135049
H	-0.9247092062	-0.3100107139	 0.4985938645	 0.086074
H	-0.3607912309	-1.0022484512	-1.9312740805	 0.094323
H	 2.0461212203	-0.5453947152	-2.6462467949	 0.115145
H	 2.1121421861	 0.8889537414	-1.5244906611	 0.110123
H	 1.9601208308	-2.1006489624	-0.5971850515	 0.094292
H	 3.0897045046	-0.2860435921	 1.4615552401	 0.127733
H	 2.4282513671	 1.2870815616	 0.9955911737	 0.108427
H	 1.2071256004	-0.3858651047	 3.2882925296	 0.08163
