19
gdb 61182	3.46092	0.8352	0.77215	2.5008	82.03	-0.264	0.0219	0.2859	1501.1285	0.157611	-382.04842	-382.038073	-382.037128	-382.083856	37.482	
C	-0.1055256555	 1.6020931974	-0.0005433815	-0.42019
C	 0.0092439114	 0.0738248938	 0.0049602804	 0.041847
C	 0.6934447711	-0.4636826635	-1.275893193	-0.368954
C	-0.0398734153	-0.1404543417	-2.4926525121	 0.293866
C	-0.6612537443	 0.1284371683	-3.4860555934	-0.435882
C	 0.7673310238	-0.4613634843	 1.2483006056	-0.149398
N	 2.1443532942	 0.0360991087	 1.2996541583	-0.499721
C	 0.0026924158	-0.1738832143	 2.4826643716	 0.261797
N	-0.5615870438	 0.0730856257	 3.4615024976	-0.326208
H	 0.879184166	 2.0755895402	-0.0817798586	 0.120381
H	-0.6951823452	 1.9288815091	-0.8599325705	 0.143147
H	-0.5935475109	 1.9665408828	 0.9082548771	 0.137462
H	-1.0009998214	-0.3488441764	 0.0502009003	 0.106105
H	 1.7119589582	-0.0636088695	-1.3280471355	 0.151165
H	 0.7986229991	-1.55400067	-1.1994221285	 0.125209
H	-1.1999492339	 0.3601323988	-4.3712707118	 0.196636
H	 0.8222977586	-1.5530562107	 1.1593078752	 0.128376
H	 2.1509155426	 1.0208288539	 1.5473170846	 0.246931
H	 2.6622200994	-0.4460084184	 2.0275568043	 0.247432
