25
gdb 94802	2.61859	1.28465	1.11945	0.156	91.88	-0.2611	0.078	0.3392	1272.2408	0.229839	-352.367467	-352.357941	-352.356997	-352.401339	37.587	
C	-0.5141385824	 1.3339635146	 0.0916120589	-0.42181
C	 0.0671046295	-0.0773947236	 0.152297845	 0.054317
C	 0.8044355113	-0.5178851001	-1.1366974812	-0.214312
C	 1.79883559	-1.6297119971	-0.6991355384	-0.298474
C	 1.6630003231	-1.7059035422	 0.82660767	 0.423513
C	 1.179351647	-2.9818618382	 1.4733004236	-0.322746
C	 2.604132447	-2.515903036	 1.6706199447	-0.342897
C	 1.0902975218	-0.3632619633	 1.2831925705	-0.078262
C	 2.1745816108	 0.7137248705	 1.4354117147	-0.398587
H	 0.2617771534	 2.0831368579	-0.0979276229	 0.114405
H	-1.251595496	 1.4157804619	-0.7143977433	 0.109912
H	-1.0174887336	 1.6025237062	 1.0271449248	 0.108272
H	-0.7632746371	-0.7783588843	 0.3122178918	 0.070609
H	 0.1021622725	-0.8604247784	-1.9021748497	 0.093479
H	 1.3435226606	 0.331541281	-1.5707065521	 0.094719
H	 1.5783761751	-2.5934870718	-1.168048625	 0.09488
H	 2.8226708058	-1.3687233268	-0.9887747273	 0.097733
H	 0.4994090928	-2.9087341724	 2.316650225	 0.105174
H	 1.009103819	-3.8463101997	 0.8389230872	 0.104252
H	 3.395936074	-3.0668213102	 1.1722784109	 0.105989
H	 2.8830773867	-2.1336569333	 2.6478773835	 0.10565
H	 0.5759428093	-0.4692129492	 2.2461503041	 0.057751
H	 2.7000127274	 0.9027446851	 0.4929847079	 0.113355
H	 1.7517659334	 1.6640645635	 1.7755434362	 0.111344
H	 2.9238674988	 0.401940806	 2.169729771	 0.111734
