19
gdb 31525	3.18852	1.08622	0.84721	2.7156	81.07	-0.1834	0.0365	0.2199	1397.0606	0.159346	-419.267591	-419.257955	-419.257011	-419.302824	34.837	
C	 0.0036204089	 1.5526748568	 0.109757385	-0.363653
C	 0.0928546603	 0.0253391095	-0.0158864007	-0.294878
C	 0.7982302969	-0.4130319377	-1.2612190518	 0.347448
N	 0.5609014113	 0.0299742417	-2.4845559649	-0.386905
C	 1.4169151557	-0.6599623403	-3.2940573938	 0.267758
O	 1.446306646	-0.4512271987	-4.6333269548	-0.445468
C	 2.1985793816	-1.5416732652	-2.5926766839	 0.202257
C	 3.2624957424	-2.4954654099	-3.0088187679	-0.515225
N	 1.775986223	-1.357568245	-1.2774599806	-0.347714
H	 0.9993318583	 1.999489758	 0.1884687046	 0.118496
H	-0.4822851524	 1.9743477993	-0.773084932	 0.144776
H	-0.5721299722	 1.8362195434	 0.9958235205	 0.107972
H	 0.6073878476	-0.3985156151	 0.8551011378	 0.093432
H	-0.9214155711	-0.3957402238	-0.0068106201	 0.122841
H	 0.7795486585	 0.2223045686	-4.8115370287	 0.296901
H	 4.2353804702	-2.2691294291	-2.5528147454	 0.12185
H	 3.0178810785	-3.5362542896	-2.7589288577	 0.121667
H	 3.3864013493	-2.4382675148	-4.0926867848	 0.152639
H	 2.1351603172	-1.8463314883	-0.4744409908	 0.255808
