21
gdb 86572	2.78255	1.1386	0.90493	2.605	79.71	-0.2358	-0.0065	0.2293	1351.3273	0.17999	-424.241421	-424.231224	-424.23028	-424.276989	36.989	
C	-0.2541248011	 1.473507122	 0.0556773082	-0.382335
C	-0.040275855	-0.0366092634	 0.0666979588	-0.045923
C	 0.8855011294	-0.564494778	-1.0699884744	-0.263843
C	 2.07025428	-0.591560557	-0.075947462	-0.077854
C	 1.0402256635	-0.5215938838	 1.0882113029	 0.114445
O	 1.4449399916	 0.3168499014	 2.144715625	-0.424883
C	 2.9930824486	-1.7899260332	-0.0420115099	 0.350706
C	 4.1853178323	-1.6678318454	 0.8892453353	-0.48129
O	 2.7682152999	-2.7934091433	-0.6818540805	-0.307385
H	 0.6914736	 2.01647944	-0.0380799806	 0.121691
H	-0.8933851598	 1.761248733	-0.7854146127	 0.113711
H	-0.7345773592	 1.8153554603	 0.9780760616	 0.107686
H	-1.0043811524	-0.5471578079	 0.1560143182	 0.066459
H	 0.6378484054	-1.5752796442	-1.399489896	 0.124219
H	 0.9968295541	 0.0791426043	-1.9452442923	 0.101268
H	 2.6473082288	 0.3381254372	-0.0758970522	 0.090761
H	 0.8022369302	-1.5311275121	 1.4520014479	 0.078806
H	 0.8297784187	 0.2100932789	 2.8773303073	 0.287885
H	 3.8797621297	-1.2346005381	 1.8477138049	 0.148896
H	 4.6555777426	-2.6411893763	 1.0352382096	 0.135966
H	 4.9167500726	-0.9773090544	 0.4516466509	 0.141017
