19
gdb 103104	2.25593	1.20462	1.16435	0.399	78.47	-0.2415	0.0343	0.2758	1216.0604	0.154982	-422.974819	-422.964405	-422.963461	-423.009949	38.308	
C	 0.2030861134	 1.5668627483	 0.1925696403	-0.402025
C	-0.1695203516	 0.1074801414	-0.0961541936	-0.222589
C	 0.6159920425	-0.4694801713	-1.2533494614	 0.345517
O	 0.412630083	 0.1471917829	-2.4980284121	-0.466736
C	 1.9779021312	-1.0744940642	-1.0326177622	 0.037906
O	 2.5031015376	-1.1511012712	 0.2518956187	-0.423711
C	 0.7948110158	-1.9774183417	-1.4137293504	-0.332736
C	 0.3306391864	-2.9070515545	-0.4324471188	 0.300476
C	 0.0180419313	-3.6927310649	 0.4259586299	-0.425939
H	 1.2614886963	 1.6536939182	 0.4581694928	 0.13247
H	 0.0086328557	 2.2103598631	-0.6727988241	 0.107514
H	-0.3864577273	 1.9608486303	 1.0252709916	 0.118077
H	 0.0113041386	-0.5001877855	 0.7931867097	 0.114313
H	-1.2373659338	 0.0286591015	-0.3311022411	 0.106281
H	 0.8547038249	 1.0035015351	-2.4784964751	 0.286838
H	 2.7198772826	-0.9152193315	-1.8133239785	 0.102306
H	 2.3110676008	-2.0296107536	 0.6058564451	 0.293931
H	 0.7773625448	-2.3169114627	-2.4443243215	 0.127752
H	-0.3055766424	-4.3858551696	 1.1626481407	 0.200356
