17
gdb 24164	5.40115	0.97079	0.87891	2.7226	75.23	-0.1954	0.0327	0.2281	1315.0462	0.137355	-418.017391	-418.009517	-418.008573	-418.050948	29.613	
C	-0.3564359313	 1.1247790163	-0.1242861478	-0.279391
C	 1.1242461723	 1.0511315945	 0.2037497767	-0.298742
C	 0.3413801422	-0.1992556826	-0.0232825843	 0.158875
O	 0.1305160943	-0.9851596411	 1.1244271471	-0.28774
C	-0.8862378896	-1.8748207488	 1.0603811813	 0.374702
C	-1.332907824	-2.636385826	 2.1128948963	-0.223678
N	-2.3461076205	-3.4058725949	 1.566359293	-0.234194
C	-2.4537491115	-3.0744158126	 0.2569088709	 0.016254
N	-1.5801516142	-2.1468776131	-0.0840241975	-0.334538
H	-1.0276238139	 1.3871661829	 0.6853461068	 0.119525
H	-0.6648909815	 1.4706776207	-1.1044332318	 0.11506
H	 1.8473347905	 1.3499420769	-0.5466854974	 0.113385
H	 1.4149091876	 1.2635375934	 1.2262539204	 0.122429
H	 0.4956801974	-0.7777631984	-0.9277104394	 0.110128
H	-1.0368177617	-2.7035156537	 3.14419157	 0.129419
H	-2.9030100639	-4.0824368629	 2.0596042811	 0.267305
H	-3.1774901623	-3.5296942807	-0.4015808054	 0.131201
