21
gdb 95689	2.89305	1.23041	0.97111	3.9064	79.01	-0.2319	0.0624	0.2943	1270.2396	0.185807	-420.460352	-420.451484	-420.45054	-420.493706	34.175	
C	-0.0715174881	 1.5660139039	-0.0039232889	-0.405815
C	 0.0400073298	 0.0370089361	-0.0131750868	 0.040024
C	 0.8037964204	-0.4466565919	-1.2618289551	-0.183803
C	 1.2888562788	-1.8962582304	-1.1369651134	-0.187307
N	 0.2694480858	-2.773926818	-0.5766383625	-0.322528
C	 0.0617414309	-2.9208241721	 0.7826070223	 0.402839
O	-0.4453943793	-3.9277079876	 1.2504046483	-0.416268
N	 0.4637079617	-1.8771480352	 1.5935297523	-0.328066
C	 0.6902497615	-0.4627387554	 1.2874743138	-0.166939
H	 0.9120690844	 2.0331705316	 0.1264540685	 0.115761
H	-0.4862784654	 1.9322672368	-0.9485242064	 0.117476
H	-0.7196900058	 1.9168773725	 0.805574644	 0.11491
H	-0.9721961778	-0.3821190673	-0.0484128366	 0.097327
H	 0.1524865259	-0.3422010835	-2.1370940234	 0.101717
H	 1.6753021765	 0.198238419	-1.4365163129	 0.092917
H	 1.565182745	-2.2853227336	-2.1207032687	 0.109137
H	 2.1978247879	-1.9329619731	-0.5210846586	 0.116251
H	 0.079247207	-3.6370543538	-1.0602513843	 0.247261
H	 0.245516769	-2.0895860768	 2.5538660076	 0.24739
H	 1.7673153776	-0.2341021557	 1.2653538039	 0.10178
H	 0.275538974	 0.1085397046	 2.1251972268	 0.105937
