16
gdb 15378	6.22405	0.86768	0.83917	1.3861	62.36	-0.2566	-0.0324	0.2241	1328.3599	0.127849	-420.852148	-420.843388	-420.842444	-420.88706	29.788	
O	-0.1447878608	 1.3162402194	-0.6869461499	-0.414951
C	 0.0863610039	 0.1622601056	 0.1020485724	-0.085165
C	-1.2152858496	-0.516879794	 0.4483645421	 0.034082
O	-1.8548095559	-1.225824055	-0.6282549162	-0.267593
C	-1.4334983095	-1.971570187	 0.5205839425	 0.044755
C	-0.3729124366	-3.0324106703	 0.3075258594	-0.315651
C	-0.9406879523	-4.2346441642	-0.4283963708	 0.160425
O	-0.8263152161	-5.3738586972	-0.0590337057	-0.232639
H	-0.6169014064	 1.0271449209	-1.4761152977	 0.294492
H	 0.7682445431	-0.5362637664	-0.4016057018	 0.093165
H	 0.577172519	 0.509486427	 1.0178110842	 0.119341
H	-1.9010032028	 0.1154229596	 1.0149475039	 0.105921
H	-2.263820037	-2.3011262905	 1.1485641657	 0.107248
H	 0.4423091716	-2.6312957986	-0.3050597289	 0.129254
H	 0.0401471762	-3.3705853273	 1.2626323	 0.130199
H	-1.4828289969	-3.9799644419	-1.3657124891	 0.097116
