17
gdb 17314	2.7071	2.45498	1.70936	1.0837	67.48	-0.2062	0.0716	0.2778	824.4044	0.141189	-363.759153	-363.751564	-363.75062	-363.790725	29.461	
C	-0.0981193093	 1.6166439752	-0.043701341	-0.39205
C	 0.1258397359	 0.1110233642	 0.070567642	-0.081169
C	 1.3803757204	-0.7203136872	-0.1888197426	-0.147659
C	 2.6759383341	-0.1771163621	 0.4734048268	-0.04529
N	 2.3911578278	 1.1139184774	 1.1594460384	-0.33896
C	 2.0393979363	-0.1772125406	 1.8022223564	-0.135618
C	 0.7144215176	-0.7259660517	 1.1769665132	 0.363583
O	 0.0507826874	-1.7856474645	 1.7720063981	-0.455912
H	 0.6634398433	 2.0930856459	-0.6626360947	 0.12833
H	-1.0766426123	 1.8083540112	-0.4983644783	 0.092843
H	-0.0706735767	 2.109561624	 0.929372842	 0.122902
H	-0.7096032897	-0.4637214995	-0.3311332482	 0.093913
H	 1.396228207	-1.5038664231	-0.9357148086	 0.09401
H	 3.6833524553	-0.4457793355	 0.1842887599	 0.094218
H	 3.268160934	 1.4236562496	 1.5805190997	 0.226876
H	 2.4281112108	-0.4720595436	 2.7685219991	 0.095014
H	-0.6398980518	-1.4257974496	 2.3403732077	 0.284971
