17
gdb 11757	5.19462	1.28618	1.2116	2.2965	64.23	-0.249	0.0642	0.3132	1016.0528	0.14242	-400.945989	-400.938067	-400.937123	-400.978473	29.574	
O	 0.102175315	 1.3424156008	-0.2745570617	-0.417335
C	 0.0536945436	 0.0165538647	 0.2329638137	-0.160891
C	-1.3507440852	-0.5031152716	 0.2954411509	 0.326684
C	-2.4284719739	-0.1670848218	 1.3363032662	-0.341514
C	-2.979581732	-1.6283161721	 1.1608833019	 0.103098
O	-4.2794716592	-1.7909074806	 0.6341666369	-0.431754
C	-1.8928734338	-1.8968572593	 0.1184521613	-0.10207
N	-1.9720483714	-0.9195660393	-0.962471584	-0.367612
H	-0.2795309039	 1.3073769486	-1.1590677754	 0.288537
H	 0.6625933078	-0.6699190528	-0.373798674	 0.096734
H	 0.4910558831	 0.0607838178	 1.2360844851	 0.105758
H	-2.0358141817	 0.016021228	 2.3398816481	 0.106961
H	-3.1135495295	 0.6421017057	 1.064050467	 0.098624
H	-2.8360881536	-2.2247854257	 2.0714435829	 0.076848
H	-4.9128557101	-1.4846111998	 1.2911827208	 0.287337
H	-1.3909893149	-2.8393386541	-0.0683656568	 0.093702
H	-2.9238854302	-0.5738208583	-1.0727221829	 0.236894
