25
gdb 100968	2.20833	1.05416	0.9897	1.6681	89.02	-0.2529	0.0815	0.3344	1456.6748	0.225663	-389.492869	-389.481459	-389.480515	-389.529482	41.785	
C	-0.2615207744	 2.4325693717	 2.1500604968	-0.394066
C	-0.8140027378	 1.0638414395	 1.7392013667	-0.177141
C	-1.3766378672	 0.2358040934	 2.9139060262	-0.021906
C	-2.6492438501	 0.8481316745	 3.5211750601	-0.408638
C	-1.5963939277	-1.2183167363	 2.4987929005	 0.398088
C	-2.6303142041	-1.4774331087	 1.4179764532	-0.471915
O	-0.3824468001	-1.9770987922	 2.3248020378	-0.313874
C	-1.2579091762	-2.340453804	 3.4007680619	 0.022991
C	-0.7223017816	-2.2427802112	 4.8070955627	-0.429944
H	 0.1714590225	 2.9518451451	 1.2893341959	 0.112686
H	-1.0380789406	 3.082266639	 2.5661135148	 0.115206
H	 0.5262240035	 2.3302239626	 2.905067081	 0.114742
H	-1.5913591602	 1.2031348829	 0.9771509837	 0.092381
H	-0.0146244255	 0.4808930934	 1.2674339461	 0.113926
H	-0.6019072274	 0.2290540136	 3.6880410376	 0.072972
H	-2.4476223915	 1.8361025308	 3.9439550397	 0.118237
H	-3.4369443343	 0.9666882591	 2.7693432673	 0.11694
H	-3.0462506194	 0.2199677481	 4.3255210121	 0.113248
H	-2.3900459361	-0.9288948416	 0.5022033673	 0.126577
H	-2.6577121339	-2.5418993236	 1.1730225441	 0.124765
H	-3.6305825333	-1.1718167749	 1.7406712041	 0.120336
H	-1.7997361649	-3.2718372383	 3.2133327674	 0.076676
H	-0.018343001	-3.0613625937	 4.9921868693	 0.128858
H	-0.197557529	-1.3042509995	 4.9921860491	 0.129095
H	-1.5383428397	-2.3370275197	 5.5321679245	 0.119762
