19
gdb 78567	2.30711	1.76503	1.25469	3.6899	79.82	-0.2306	0.0114	0.242	1074.9781	0.158748	-385.873174	-385.864895	-385.863951	-385.905713	32.088	
C	 0.1094630104	 1.6320489606	 0.0157779768	-0.422825
C	 0.0780981191	 0.1103982806	 0.0015093195	 0.016746
C	 0.7692668046	-0.683162061	-1.1187387103	-0.137698
C	 2.2676483718	-0.7855680608	-0.7742009206	-0.239279
C	 2.4270732016	-0.2292840634	 0.6015927563	 0.438373
O	 3.3610340162	 0.1707685726	 1.241189489	-0.353382
C	 1.0028626793	-0.6872074398	 0.9717923192	-0.24522
C	 1.2121037795	-1.7605347599	-0.1861554921	 0.340617
C	 1.1909052786	-3.2526313402	-0.191581382	-0.525476
H	 1.128953764	 2.0144134167	-0.0963995794	 0.131516
H	-0.4958902416	 2.0417215191	-0.7999199146	 0.115999
H	-0.2918446933	 2.0228316581	 0.9570079556	 0.121449
H	-0.9498016799	-0.2551936043	 0.1025775387	 0.077842
H	 0.4652682115	-0.7853852926	-2.1544799894	 0.093244
H	 3.0190369481	-0.9952084481	-1.5234777554	 0.10645
H	 0.7336526776	-0.8799067922	 2.0074473248	 0.085546
H	 0.2019943444	-3.6370787628	 0.0820387629	 0.129766
H	 1.4365646989	-3.6405243028	-1.1854421101	 0.130086
H	 1.9175998493	-3.6638439199	 0.5174112611	 0.136246
