15
gdb 45294	3.07778	1.68291	1.28839	2.8346	64.79	-0.2705	-0.0086	0.262	948.8784	0.113594	-457.736941	-457.73024	-457.729296	-457.768162	25.916	
O	-0.1711886279	 0.0454491854	 0.0796312975	-0.325799
C	-0.0280219248	 1.2219176089	 0.0126440756	 0.389654
O	-1.0112613878	 2.2022372609	 0.0825139084	-0.268292
C	-0.0657968463	 3.2788256474	-0.2182320168	 0.083579
C	 0.4201412683	 4.0439752122	 1.033533639	-0.274688
C	 1.5688370934	 3.0189523781	 1.1590517661	 0.089319
O	 2.7671609957	 3.3736090079	 0.4333308761	-0.291649
C	 2.4854216069	 2.4210889976	-0.6283763211	-0.193277
C	 1.0756824319	 2.2384286813	-0.1086880069	 0.073568
H	-0.3477520541	 3.7986112549	-1.1330221717	 0.10664
H	 0.7754155358	 5.0577087964	 0.838240026	 0.130676
H	-0.3018960191	 4.0525145803	 1.852785483	 0.12986
H	 1.7856093641	 2.5485494587	 2.1210758506	 0.100387
H	 2.6032162884	 2.8582813212	-1.6251109571	 0.121623
H	 3.1129302754	 1.5252985887	-0.541306929	 0.128399
