19
gdb 41765	2.57069	2.07526	1.56312	1.7746	77.84	-0.2347	0.0203	0.255	919.7451	0.16344	-385.888805	-385.882184	-385.88124	-385.919619	27.642	
C	 0.1938834758	 1.6424653634	 0.0210037895	-0.104196
O	 1.3744904676	 1.9004140557	-0.7368063472	-0.258678
C	 2.2607308028	 0.7782396741	-0.5322405396	 0.023528
C	 3.1150279047	 1.0498279829	 0.6834473262	-0.056457
C	 2.7910310475	 0.6387592186	 1.907090393	-0.051504
C	 1.597886603	-0.2216238881	 2.2212126806	-0.291686
C	 0.8452724171	-0.7285920613	 1.0004620048	-0.039489
C	 0.0248040112	 0.1252978859	 0.0529943419	-0.076479
C	 1.3480302149	-0.4419478637	-0.3936037868	-0.086757
H	 0.2772096291	 2.0764061572	 1.029137636	 0.093111
H	-0.6413516376	 2.1319353635	-0.4885428577	 0.106689
H	 2.8802775453	 0.7096027927	-1.4305584992	 0.079586
H	 3.9799016775	 1.6897363057	 0.5332346421	 0.089084
H	 3.4069210093	 0.9276881032	 2.7561139312	 0.08819
H	 1.9355802696	-1.0858943555	 2.8095915229	 0.11061
H	 0.9200429638	 0.3265394223	 2.8919071575	 0.114597
H	 0.4281715947	-1.7226909564	 1.1382014865	 0.085231
H	-0.9083921078	-0.2898475096	-0.3098018277	 0.087944
H	 1.4270163614	-1.2311706507	-1.131241554	 0.086674
