21
gdb 94453	2.82382	1.29855	1.18133	1.4869	84.16	-0.2293	0.0238	0.2531	1165.3585	0.183937	-387.09177	-387.083433	-387.082489	-387.124596	33.035	
O	 0.4973052799	 0.8575241046	-0.7205316305	-0.427138
C	 0.1366203605	-0.2221161438	 0.1011856335	 0.108465
C	 0.0014348758	-0.0313336648	 1.6298462972	-0.269702
C	-1.1610425076	-1.0570932367	 1.6003757478	-0.279734
C	-1.3213223445	-0.8099700272	 0.0604411021	 0.306105
C	-2.4223932262	 0.2060773237	-0.3425685502	-0.296292
C	-3.52903573	-0.6206153486	-1.0479957589	-0.263354
C	-2.814432205	-1.8992482911	-1.4125509488	-0.072204
C	-1.6273747538	-1.9907646732	-0.8152825002	-0.145744
H	-0.0094088236	 1.6277753947	-0.4432372951	 0.279829
H	 0.854736373	-1.016248783	-0.1296447506	 0.087324
H	 0.8726015522	-0.2406625334	 2.2546410443	 0.100303
H	-0.361289581	 0.9759710021	 1.8658481698	 0.092199
H	-0.8175532296	-2.0736297257	 1.8122562269	 0.100956
H	-2.0355042769	-0.8503974905	 2.2218954102	 0.099469
H	-2.8020104572	 0.7861410334	 0.5036708595	 0.091397
H	-1.9966400274	 0.9120069326	-1.06467901	 0.101462
H	-4.3779359916	-0.8268704075	-0.3812096031	 0.105621
H	-3.9455528895	-0.1000217801	-1.9178106215	 0.103629
H	-3.2526410402	-2.6523491454	-2.0586133717	 0.091252
H	-0.9461312973	-2.83240255	-0.8954090904	 0.086157
