21
gdb 87005	6.20142	0.58554	0.56769	2.2959	81.98	-0.2189	-0.0267	0.1922	1955.5941	0.180935	-420.371592	-420.361664	-420.36072	-420.407742	35.114	
C	 0.2393456374	 1.5026933637	 0.0663381862	-0.314661
N	 0.0148716451	 0.0771019808	 0.1279053878	-0.061127
C	-1.2938394918	-0.4158904857	 0.5917541398	-0.200216
C	-0.5683693747	-1.5978775369	 1.2714024488	 0.056261
C	 0.7126987121	-0.7092618826	 1.1594618871	-0.190235
N	-1.0906546655	-2.0454811166	 2.5393962114	-0.309853
C	-0.3406586338	-3.1166520022	 3.1764689979	-0.226667
C	-1.1476344552	-3.7401672757	 4.303703918	 0.148929
O	-0.6720638978	-4.2091432314	 5.3039346282	-0.236006
H	 1.277995976	 1.7037471101	-0.2167665642	 0.121856
H	-0.4081929943	 1.9490616416	-0.6959975992	 0.121686
H	 0.04112013	 2.016469623	 1.0273782458	 0.085918
H	-1.7646255622	 0.2418237587	 1.3458003504	 0.076172
H	-2.0258553883	-0.6279339986	-0.1941558048	 0.10698
H	-0.5001111346	-2.460395876	 0.6018527537	 0.095381
H	 1.6579676749	-1.1620201555	 0.8410568389	 0.100785
H	 0.8814695488	-0.148231655	 2.0975657041	 0.071549
H	-1.1810387896	-1.2571970582	 3.1731713743	 0.218887
H	-0.1875869551	-3.9124206243	 2.4313820141	 0.133729
H	 0.6551957362	-2.8459986849	 3.561695253	 0.114653
H	-2.2449484874	-3.7333931743	 4.1142178488	 0.085979
