17
gdb 130393	2.27949	1.63859	1.07075	11.5295	74.55	-0.2022	-0.0032	0.199	1108.2502	0.138655	-451.266582	-451.258509	-451.257565	-451.299268	30.378	
N	 0.3571927624	 1.1510687843	 0.2246674264	-0.422006
H	 0.5071540751	 0.1449646624	 0.1208218211	 0.293555
H	 1.2238082654	 1.6299391129	 0.6069074145	 0.328564
H	 0.1561365722	 1.5615012688	-0.6886299844	 0.313043
C	-0.8062954202	 1.5252937332	 1.1856694063	-0.339706
C	-0.811976413	 2.9879979837	 1.3097700169	 0.199545
C	 0.1890519118	 3.8152448895	 1.8271870631	 0.183706
C	 1.4918678074	 3.417608869	 2.4070301189	-0.236085
O	 2.3183370575	 2.6910838117	 1.4159979666	-0.430104
N	-0.1732774557	 5.0830831072	 1.5664916955	-0.283802
N	-1.3520147621	 5.0336989228	 0.9276211188	-0.167606
N	-1.7479528059	 3.7765283273	 0.7387386965	-0.291378
H	-1.7264414846	 1.1427019911	 0.7414632075	 0.161597
H	-0.576030611	 0.9758243287	 2.1044485819	 0.142542
H	 2.0484856462	 4.2902152531	 2.7584441414	 0.140565
H	 1.4055119018	 2.7020608496	 3.2313990778	 0.113403
H	 2.5609699327	 3.3504357647	 0.7534166013	 0.294166
