16
gdb 126126	4.61849	0.99595	0.82753	2.7699	72.07	-0.2552	-0.0514	0.2038	1341.9146	0.125373	-434.097261	-434.088872	-434.087927	-434.131404	29.43	
C	-0.0550358439	 1.5179465437	 0.0835248674	-0.384582
C	 0.0246327611	-0.0013773851	-0.0369678038	-0.283585
C	 0.7420391766	-0.4626940334	-1.2927042941	 0.287066
O	 1.2023450383	 0.3060183698	-2.1121746734	-0.315394
C	 0.8749708997	-1.9233579422	-1.5076823333	 0.243355
N	 0.4007619973	-2.848817631	-0.6615404168	-0.275869
N	 0.7377443081	-3.9846130372	-1.2398046334	-0.064714
N	 1.394529054	-3.9011149785	-2.3959112326	-0.192459
C	 1.4930615276	-2.5893965583	-2.5863574016	-0.103804
H	 0.9432900879	 1.9624938974	 0.1029374768	 0.131068
H	-0.5856089428	 1.9513560009	-0.768115629	 0.131099
H	-0.5791309775	 1.8028095695	 0.9998637917	 0.110127
H	 0.5364081279	-0.4499295173	 0.8244091512	 0.133192
H	-0.9722612699	-0.4610149391	-0.0333986771	 0.133192
H	 0.5101107396	-4.8763689019	-0.8279356386	 0.299772
H	 1.982036856	-2.1748051073	-3.4518247934	 0.151536
