17
gdb 95675	3.05288	1.24737	0.97077	4.9486	72.05	-0.2654	-0.0487	0.2167	1188.1201	0.136655	-458.991279	-458.983069	-458.982124	-459.02439	30.705	
O	-0.496685018	 1.3862005103	-0.8585617681	-0.428873
C	-0.1519150544	 0.2724801431	-0.0404899826	 0.07753
C	-1.4248882514	-0.5391165713	 0.1557095304	-0.226404
C	-1.1712719775	-1.856606411	 0.8786721656	-0.091733
O	-0.8633250427	-2.9398999122	-0.0035594121	-0.225975
C	 0.2292551272	-2.9543301044	-0.7994838216	 0.393483
O	 0.4548187249	-3.9491656704	-1.4425076167	-0.330649
C	 1.1548702031	-1.7897784588	-0.9018156564	-0.176179
C	 1.0047682076	-0.4902579056	-0.6323540832	-0.086513
H	 0.2727493395	 1.9592246742	-0.9404339758	 0.286747
H	 0.1807940623	 0.6294294185	 0.9519415607	 0.083555
H	-2.1338161577	 0.0695526655	 0.7253315275	 0.117939
H	-1.8857414048	-0.7429258365	-0.8163317413	 0.134843
H	-0.3792180093	-1.7527851779	 1.632171396	 0.11407
H	-2.0745311378	-2.1930471489	 1.391124353	 0.130542
H	 2.0863320814	-2.1123809286	-1.3565401928	 0.12758
H	 1.8569289376	 0.148432614	-0.8698723826	 0.100037
