15
gdb 81419	3.47826	1.21644	1.07396	4.5644	70.2	-0.253	-0.0704	0.1825	1109.2574	0.111634	-457.715311	-457.707665	-457.706721	-457.747724	28.559	
O	 0.0069345435	 1.363475836	-0.070316192	-0.422996
C	 0.0077434127	-0.0232056217	-0.0062065535	 0.158253
C	-0.0167856022	-0.6506574802	 1.460075355	-0.026872
O	-1.4190428666	-0.2570694514	 1.5250649205	-0.277519
C	-1.4314577702	-0.6304816523	 0.1126453133	-0.073233
C	-1.0890675549	-2.1204004975	 0.1783968111	 0.273337
C	-1.626483084	-3.2070864827	-0.6282971465	 0.041465
O	-2.4091921304	-3.0546908292	-1.5412929188	-0.273749
C	-0.1140686876	-2.1269881069	 1.1113852104	-0.186918
H	 0.8752007174	 1.6622780873	-0.3549643516	 0.295363
H	 0.6873023349	-0.4866558915	-0.7310680034	 0.082291
H	 0.6018674864	-0.2992133961	 2.2835894218	 0.093071
H	-2.2863446411	-0.2821990017	-0.4606269546	 0.110983
H	-1.2583113936	-4.2177925574	-0.3448720554	 0.074594
H	 0.4961524957	-2.9427703046	 1.4738632436	 0.131929
