23
gdb 97575	3.07871	0.68923	0.59402	1.1837	92.17	-0.2407	0.036	0.2767	1947.4808	0.202324	-388.264896	-388.253096	-388.252152	-388.304226	41.416	
C	 0.0524723566	 1.5239720983	 0.1427071621	-0.402388
C	 0.020056524	-0.006340489	 0.0272030494	 0.055423
C	-1.417866128	-0.5187810156	 0.1827085021	-0.393483
C	 0.651851416	-0.5035816946	-1.3064040229	-0.140421
C	 2.0932870796	 0.0046660535	-1.5269737084	-0.39842
C	 0.6386633393	-1.9654503213	-1.3916521348	 0.057464
C	 0.6728645804	-3.1679857775	-1.4544342299	 0.112412
C	 0.6823826855	-4.622707255	-1.5398972038	-0.218043
O	 2.0254671173	-5.0960682529	-1.5390978802	-0.409811
H	 1.0702821706	 1.9206991948	 0.1749665758	 0.1167
H	-0.4662421928	 1.9929718089	-0.7026601376	 0.110657
H	-0.4546002199	 1.8463694696	 1.0577866243	 0.11119
H	 0.6242351628	-0.4280466747	 0.8420704898	 0.080357
H	-2.0650804548	-0.1081640443	-0.6022436072	 0.108093
H	-1.4624870235	-1.6087202655	 0.1184913173	 0.124985
H	-1.8360673494	-0.2146726168	 1.1476142333	 0.107569
H	 0.0289504079	-0.1107571335	-2.1249396097	 0.095718
H	 2.5127271488	-0.4267588449	-2.4391240168	 0.127051
H	 2.1186045511	 1.0927885275	-1.6216224627	 0.115775
H	 2.7372157078	-0.2878803085	-0.6915605961	 0.125161
H	 0.1157849259	-5.0389368674	-0.6905641104	 0.112948
H	 0.1533812217	-4.9341233551	-2.4558123015	 0.113321
H	 1.9893258433	-6.0562582061	-1.598421702	 0.287742
