19
gdb 70635	2.40823	1.6065	1.1914	1.8384	80.95	-0.2558	0.0369	0.2927	1101.8534	0.158463	-385.850147	-385.841599	-385.840655	-385.882969	33.206	
C	-0.2793940896	 1.2951985459	-0.1940704435	-0.491852
C	 0.0045542038	-0.159125091	 0.0787117565	 0.339801
C	-0.6554349842	-0.9054066489	 1.2096484658	-0.331671
C	 0.8368685424	-0.6769061998	 1.2284410314	-0.1124
C	 1.678923021	-1.8043019154	 0.664072262	-0.095474
O	 1.0247560664	-2.2043094139	-0.5393767181	-0.268089
C	 0.4028838635	-1.0487761839	-1.1072175128	-0.117266
C	-0.7061963908	-1.457255024	-1.9630317107	 0.324685
C	-1.629916226	-1.744297048	-2.675502451	-0.437334
H	 0.5646432433	 1.7807752892	-0.6981744655	 0.117008
H	-1.1609002117	 1.4076335324	-0.8350592708	 0.132439
H	-0.4719147198	 1.8389058156	 0.7354636845	 0.119428
H	-1.2575071047	-0.3192557901	 1.8953277364	 0.109056
H	-1.0199326578	-1.9111672096	 1.0262432345	 0.129268
H	 1.2777804518	-0.0039106784	 1.9551407567	 0.089237
H	 2.7030966992	-1.451591603	 0.4604625891	 0.092928
H	 1.7396889412	-2.6917175778	 1.3025590262	 0.111806
H	 1.1332963473	-0.4906097035	-1.7201661396	 0.091407
H	-2.4434721154	-2.0110813859	-3.3038293812	 0.197025
