22
gdb 58815	3.08798	1.32665	1.12503	1.24	85.47	-0.2163	0.0744	0.2907	1194.332	0.193621	-367.132872	-367.124072	-367.123128	-367.16597	35.032	
C	-0.0566249676	 1.5446323043	 0.1960601826	-0.390685
C	-0.0395456393	 0.0166896185	 0.0279381812	-0.046936
C	 0.9054808099	-0.6537898504	 1.0310904886	-0.408372
C	-1.4478340847	-0.518343991	 0.0861156309	 0.394237
C	-2.1917951291	-0.9625855017	 1.3134425081	-0.355782
C	-2.0392355375	-1.9106019988	 0.146789775	-0.155497
C	-2.9168009954	-1.512663221	-1.0498887292	-0.029865
C	-3.7445274948	-0.3066267654	-0.8531729401	-0.25616
N	-2.3024966705	-0.1404953659	-1.1292039527	-0.181869
H	 0.9433045371	 1.965875573	 0.0495469544	 0.105336
H	-0.7316460031	 2.0031562174	-0.5318487606	 0.133375
H	-0.3966635625	 1.8217758198	 1.2004951764	 0.108455
H	 0.327063606	-0.2022477172	-0.9842804893	 0.083531
H	 0.641343016	-0.401413254	 2.0639744005	 0.115498
H	 0.8940602611	-1.7444195316	 0.9327553016	 0.112376
H	 1.9330847592	-0.3154169976	 0.8663244015	 0.114888
H	-1.5377301043	-1.2065899115	 2.1443987018	 0.117802
H	-3.1481029	-0.5638903418	 1.6340666875	 0.10988
H	-1.5482968329	-2.8711822874	 0.2336877043	 0.092576
H	-2.9910192649	-2.1295248741	-1.9402712883	 0.096835
H	-4.3482091954	 0.0130927925	-1.698472982	 0.120997
H	-4.1682745674	-0.0428732662	 0.1085907581	 0.11938
