19
gdb 41548	3.25351	1.85877	1.68324	1.6325	76.36	-0.2245	0.0783	0.3028	886.7883	0.162493	-385.840364	-385.834105	-385.83316	-385.870683	27.03	
C	-0.0141936213	 1.5607143955	 0.3093778623	-0.227663
C	 1.4883361042	 1.6201822526	-0.0937792425	-0.22577
C	 1.3970593701	 0.15974484	-0.6288446619	-0.018496
C	-0.0451870751	 0.0364642383	-0.0366829696	-0.012611
C	-0.9032045523	-0.5085320239	-1.1715887266	-0.098097
C	-0.8310600821	 0.1810999962	-2.5223325196	 0.092789
O	 0.2801718772	 1.0738649171	-2.5869986591	-0.306422
C	 1.1562721096	-0.014570149	-2.1268506375	 0.067274
C	-0.0018457866	-1.037431156	-2.2820878512	-0.160721
H	-0.2277210794	 1.8015139665	 1.3537428738	 0.088026
H	-0.6609882258	 2.1613074555	-0.3312738469	 0.110859
H	 1.7579178654	 2.3782962312	-0.8303848704	 0.109708
H	 2.1595262923	 1.7077267992	 0.764083275	 0.092557
H	 2.1507793528	-0.5479482703	-0.2694159702	 0.06359
H	-0.1252417219	-0.6014688623	 0.8470622014	 0.066041
H	-1.8233495629	-1.0449868273	-0.9634956324	 0.084533
H	-1.6795637567	 0.3799650946	-3.1667716055	 0.101809
H	 2.0370509106	-0.101514266	-2.7659115944	 0.077306
H	 0.0073381318	-2.024076072	-2.7227193949	 0.095289
