18
gdb 37904	3.08702	2.18778	2.03519	0.6678	80.31	-0.2013	-0.0348	0.1664	795.959	0.150515	-364.688049	-364.682281	-364.681336	-364.717638	25.722	
C	 0.1314967655	 1.4967287114	 0.3212403483	-0.147674
C	 1.6600536037	 1.499202492	 0.0100225326	-0.127362
C	 1.3478904784	 0.150684472	-0.7359238843	 0.017155
C	 2.0027859748	-0.6850906821	 0.3625252802	-0.094766
C	 0.6304527241	-1.0037873703	 0.9700793616	 0.028075
C	 0.8020928879	-0.6841886749	 2.4777106937	-0.26169
C	 1.707698096	 0.5456907314	 2.3859292921	-0.122769
C	 2.2358434345	 0.6081490563	 1.1516268249	 0.081369
N	-0.0020114334	 0.0315955527	-0.0118777115	-0.185821
H	-0.2034524862	 1.8151102246	 1.3119645818	 0.101137
H	-0.4340289639	 2.0416237314	-0.4458933606	 0.104009
H	 2.1540439713	 2.3702260427	-0.4224663771	 0.073771
H	 1.3854608906	-0.0047530439	-1.8136472941	 0.072797
H	 2.8032011263	-1.4142106733	 0.2256824999	 0.068284
H	 0.1672848965	-1.9737662273	 0.762014608	 0.07187
H	-0.1347064207	-0.4075409289	 2.9782756553	 0.113402
H	 1.1918671918	-1.5653562615	 3.0088564789	 0.110492
H	 1.5389005727	 1.4082943478	 3.0239651703	 0.097722
