23
gdb 57271	2.20718	1.2696	1.15396	0.5069	90.86	-0.2588	0.0595	0.3182	1269.0194	0.203746	-351.120431	-351.110301	-351.109357	-351.154895	38.942	
C	 0.3047355854	 1.5174903206	 0.1579360018	-0.406028
C	-0.0432860479	 0.0160036938	 0.0327788626	 0.041981
C	 0.543746196	-0.7573388792	 1.2363476252	-0.406028
C	-1.5028990791	-0.1378287927	 0.0317789946	 0.361248
C	-2.6999946771	-0.2578327148	 0.04394324	-0.523453
C	 0.5628218746	-0.5408348275	-1.2761622359	 0.065406
C	 0.249626453	-1.9945094729	-1.7294888779	-0.245848
C	 0.224557463	-1.4867496724	-3.1965063787	-0.214963
C	 0.0445659281	-0.042934804	-2.6546665691	-0.245849
H	 1.3918355157	 1.6498496866	 0.1753077821	 0.109805
H	-0.0985830145	 2.0855516605	-0.6844875201	 0.126562
H	-0.1081481663	 1.9374366139	 1.0794282377	 0.120207
H	 0.1353637208	-0.3802524811	 2.1781572916	 0.120207
H	 0.3121392077	-1.8235542671	 1.1686724062	 0.126562
H	 1.6325299471	-0.6410074388	 1.2613191717	 0.109805
H	-3.7566740938	-0.3624673202	 0.0573927734	 0.193488
H	 1.6484552703	-0.3977355361	-1.2149326551	 0.065218
H	 0.9681267346	-2.7757132694	-1.4695703933	 0.090937
H	-0.7454225975	-2.3027406073	-1.395785897	 0.112556
H	 1.1920395454	-1.6188191882	-3.6895350665	 0.098663
H	-0.5551269405	-1.8798501717	-3.8529006065	 0.096032
H	-1.0120202223	 0.2344991594	-2.5986096899	 0.112556
H	 0.5964312274	 0.7617699684	-3.1465760169	 0.090937
