20
gdb 116242	2.09427	1.46514	1.06523	4.1411	78.19	-0.2745	0.0201	0.2946	1219.2374	0.171505	-403.172867	-403.163578	-403.162633	-403.207716	33.42	
C	 0.0177104996	 1.6207012241	-0.2334924857	-0.391887
C	 0.0234385586	 0.0904626287	-0.1478748602	-0.208112
C	-1.3614358016	-0.5220116829	 0.0658252516	 0.013112
C	-1.3989453315	-2.0584599826	 0.1385006357	-0.267814
C	-2.7306883775	-2.3458685672	 0.8486039611	-0.078625
O	-3.1096823607	-1.1352620573	 1.5316927265	-0.255164
C	-2.0938441103	-0.1629360045	 1.3826178802	-0.033368
C	-1.183848705	-0.1702786083	 2.5534101211	 0.275569
N	-0.4715113365	-0.1813187835	 3.4636943243	-0.335176
H	 1.0204843049	 2.0022152205	-0.4458718725	 0.123108
H	-0.6484258406	 1.9740328357	-1.0285965248	 0.115208
H	-0.3104470453	 2.0753069446	 0.7070301695	 0.127547
H	 0.4386282732	-0.3256385377	-1.073657717	 0.101516
H	 0.6894073325	-0.2321216939	 0.6610797542	 0.124942
H	-2.0305322122	-0.1881748449	-0.7377273612	 0.090199
H	-1.3407300307	-2.5260487088	-0.8469060617	 0.113535
H	-0.5537839312	-2.4219468509	 0.7326032395	 0.125391
H	-3.5333226063	-2.5898066385	 0.1434746694	 0.111799
H	-2.652931441	-3.160836877	 1.5758905068	 0.117662
H	-2.5737604086	 0.8195933743	 1.3414693033	 0.130558
