19
gdb 62545	2.59408	1.2127	1.03442	0.6019	77.32	-0.2501	-0.0345	0.2156	1219.3605	0.15564	-423.050471	-423.040723	-423.039778	-423.085514	35.178	
C	-0.3431382458	 1.423880179	-0.1748081815	-0.441748
C	 0.0321742402	-0.0422216637	 0.0231880638	 0.16629
C	-1.1921940972	-0.8837561371	 0.4150114259	-0.44612
C	 0.9532800672	-0.6725158072	-1.1139638944	-0.120455
C	 1.9616259227	-1.1626708037	-0.0292553872	-0.389106
C	 1.2128414361	-0.2923860551	 0.9877653354	 0.391949
O	 1.4708023393	 0.1224380928	 2.0791518594	-0.297973
C	 0.3481052368	-1.7308567692	-1.9932761926	 0.153969
O	 0.1221815039	-1.5987394641	-3.1690051177	-0.252822
H	 0.5287333352	 2.030536046	-0.4374822787	 0.123498
H	-1.084799366	 1.5286453063	-0.9737126129	 0.129304
H	-0.7708409713	 1.8315932244	 0.7463594716	 0.137156
H	-1.9521087135	-0.8549931756	-0.3728997538	 0.134255
H	-0.9405444874	-1.9317669526	 0.6050030164	 0.120999
H	-1.6344683119	-0.479494377	 1.3303001654	 0.138789
H	 1.3635649971	 0.1131948785	-1.750920692	 0.101798
H	 1.8557279664	-2.2308150667	 0.1968349097	 0.136535
H	 3.0209001508	-0.9452355429	-0.1801146362	 0.142234
H	 0.1113374574	-2.6882146919	-1.4717566507	 0.071449
