18
gdb 7844	4.35648	1.11103	0.96122	2.2227	68.5	-0.2384	-0.0044	0.234	1223.6191	0.150896	-384.9425	-384.933294	-384.93235	-384.977917	32.425	
C	-0.131737924	 1.4575142973	 0.1952103819	-0.473052
C	 0.0258139502	-0.0534866388	 0.1508357491	 0.380154
O	 1.0753176701	-0.5936153804	 0.4148128296	-0.292161
C	-1.2149786973	-0.8400861389	-0.2586197612	-0.322448
C	-1.0506703684	-2.3345476738	-0.1294671811	 0.009394
C	-1.3765976943	-3.0273469703	 1.1786667829	-0.316978
C	-2.2561899715	-3.2222834555	-0.0314947508	 0.070874
O	-3.5069333718	-2.5927210277	-0.082609662	-0.419922
H	 0.8360540101	 1.9273082091	 0.3744520026	 0.140503
H	-0.5638293163	 1.8337655968	-0.7383678445	 0.134512
H	-0.8242694215	 1.7352962865	 0.9985465303	 0.139161
H	-2.0784717565	-0.4888733978	 0.3167354487	 0.126067
H	-1.4437403587	-0.5620818243	-1.2988062389	 0.124401
H	-0.2040259336	-2.735294697	-0.6765123814	 0.101166
H	-0.7454159292	-3.842499037	 1.5142764959	 0.114702
H	-1.7808405971	-2.4084822688	 1.9738304483	 0.10867
H	-2.213768891	-4.1842931049	-0.5421776332	 0.086522
H	-4.0924302491	-3.0501828748	 0.5294758637	 0.288435
