25
gdb 121253	3.74094	0.85391	0.7664	0.2211	92.42	-0.2586	0.086	0.3446	1624.1842	0.23082	-352.369724	-352.360408	-352.359464	-352.404088	36.237	
C	 0.0023111352	 1.6063453778	 0.05611568	-0.379995
C	-0.0256091892	 0.0769491133	-0.0122304376	-0.1659
C	 0.7046055739	-0.4825911533	-1.2391286905	-0.175008
C	 0.7294021538	-2.0141607387	-1.315408504	 0.030583
C	-0.6633025885	-2.6794462891	-1.4674346694	-0.233124
C	-0.4024321173	-4.0413912112	-2.1511668859	-0.221465
C	 0.8445304855	-3.8191947541	-2.9966533358	-0.030435
C	 0.8919112524	-2.5770126472	-3.8528315401	-0.28954
C	 1.5351939754	-2.5758762835	-2.4847592227	-0.038608
H	 1.0308249048	 1.9827473264	 0.0946204815	 0.112154
H	-0.4767189433	 2.050442494	-0.8237642612	 0.112462
H	-0.5213823827	 1.978256883	 0.9425460856	 0.108749
H	 0.4277981582	-0.3388873501	 0.8978858874	 0.091066
H	-1.0674387768	-0.2672329013	-0.0154231552	 0.09697
H	 0.2418722863	-0.0855954504	-2.1535442233	 0.088939
H	 1.738191903	-0.1093182926	-1.2386732877	 0.08578
H	 1.193762616	-2.3929233227	-0.39242253	 0.064015
H	-1.1822987068	-2.7892243188	-0.511908524	 0.096213
H	-1.3043287757	-2.0531560827	-2.098766377	 0.098263
H	-0.1925444081	-4.811011463	-1.3980896422	 0.09598
H	-1.2662208105	-4.3874066335	-2.7299460838	 0.092863
H	 1.4135769484	-4.6848449861	-3.3182527567	 0.075732
H	 1.5570933784	-2.5921697845	-4.7093674107	 0.104968
H	-0.018718909	-2.0099345999	-4.0187244973	 0.105456
H	 2.6174561568	-2.5155554219	-2.4328011193	 0.073884
