17
gdb 61381	2.56524	0.93493	0.78078	2.138	70.25	-0.2575	-0.1	0.1575	1458.8006	0.131069	-458.99448	-458.984413	-458.983468	-459.031293	33.919	
C	-0.0547758952	 1.7554167642	 0.0265354094	-0.415749
C	 0.0227511966	 0.2212793179	-0.0528166921	-0.082614
C	 0.8627432711	-0.4050264413	 1.0591617895	-0.31473
C	 2.34787169	-0.2846457413	 0.8329380742	 0.281118
O	 2.8703256872	 0.0928047872	-0.1920172879	-0.283134
C	 3.2677990269	-0.6833064942	 1.9976735502	 0.097015
O	 2.865377761	-0.9952853988	 3.0864512896	-0.214355
C	-1.3675771826	-0.3830738455	-0.1098761998	 0.153185
O	-1.7384219398	-1.3361485459	 0.5261522156	-0.246149
H	 0.9416172066	 2.1899900922	-0.0816258136	 0.143488
H	-0.6843367058	 2.1602477332	-0.7723492135	 0.125976
H	-0.4729761962	 2.0809924712	 0.9850135372	 0.128198
H	 0.4869510237	-0.027650988	-1.0200784367	 0.125833
H	 0.6233439745	 0.0128492336	 2.0442016708	 0.145414
H	 0.6227615057	-1.4725650818	 1.1601375167	 0.163259
H	 4.343946297	-0.637404035	 1.7276362491	 0.110272
H	-2.0528110904	 0.1294749824	-0.8238838586	 0.082973
