14
gdb 132542	3.10444	1.32755	0.93529	3.4838	67.78	-0.2503	-0.0344	0.216	1150.7676	0.100092	-486.000483	-485.99291	-485.991966	-486.03302	27.861	
C	-0.0100497886	 1.5186759217	 0.0070711909	-0.496464
C	-0.001372996	 0.0122427124	 0.0076309984	 0.273767
C	-0.0903468467	-0.7204609072	-1.1720623464	-0.073829
N	-0.086928803	-2.0601072248	-1.2255949785	-0.313462
C	 0.0054625661	-2.718525993	-0.1029263463	 0.221079
F	 0.0091344929	-4.0451911601	-0.1524328431	-0.054665
C	 0.1005342358	-2.0966358389	 1.1458992162	 0.129879
F	 0.1919918461	-2.8320474021	 2.2511029285	-0.054365
C	 0.0969390884	-0.7193246036	 1.1997440319	-0.28308
H	 0.9067549868	 1.9239973377	 0.4489395932	 0.138985
H	-0.0923586114	 1.9094639887	-1.0101777265	 0.133915
H	-0.851015493	 1.9139169079	 0.5872749524	 0.138992
H	-0.1686611424	-0.20908616	-2.1277481492	 0.115109
H	 0.1703434548	-0.2288428587	 2.1647400085	 0.124138
