18
gdb 58369	2.33679	1.11791	0.80673	7.4743	77.04	-0.2653	0.0179	0.2832	1400.2788	0.146762	-398.150493	-398.140349	-398.139405	-398.18615	35.698	
C	-0.0701992349	 1.5579553869	-0.0289716076	-0.415789
C	 0.0333062385	 0.0249876293	-0.0331530775	 0.021211
N	 0.7557902773	-0.5165915315	-1.1838589522	-0.497739
C	 0.7258392342	-0.531259693	 1.2447886482	-0.14377
C	 0.0687893969	-0.0371779773	 2.5618865422	-0.365653
C	 0.7921735539	-0.467096117	 3.7560915507	 0.275851
N	 1.3771286401	-0.783773359	 4.7002405654	-0.291546
C	 0.7340270528	-1.9978900168	 1.2147661645	 0.317022
N	 0.7020240163	-3.1522067197	 1.2354430327	-0.317867
H	 0.9168104738	 2.0182501775	 0.1020103095	 0.121746
H	-0.4696868322	 1.8951612547	-0.9899740592	 0.125045
H	-0.7338665116	 1.9450139738	 0.7505317143	 0.125367
H	-0.977600509	-0.3994843181	-0.0668987751	 0.107837
H	 0.2165374081	-0.3839295494	-2.032910175	 0.238595
H	 1.6338230896	-0.0209271035	-1.3161198411	 0.229248
H	 1.7693786181	-0.1907228778	 1.2369009297	 0.138524
H	 0.0353674107	 1.0552735931	 2.5644830821	 0.162494
H	-0.9641773327	-0.3967980823	 2.6202734083	 0.169423
