16
gdb 79492	2.25839	1.92339	1.23595	5.2089	74.29	-0.2781	0.0209	0.299	1003.1635	0.124864	-400.683735	-400.676295	-400.675351	-400.715587	28.729	
O	-0.0236941291	 1.4662636563	-0.086550323	-0.434406
C	 0.0467182011	 0.0681599266	-0.0267690176	 0.060261
C	 0.0164821119	-0.6174756124	 1.3550585448	-0.115852
C	-1.5121090182	-0.3120280712	 1.5548213449	-0.070452
C	-1.8353078456	-1.7841255304	 1.872642767	-0.270338
C	-0.7481520112	-1.8624945541	 0.7833383896	-0.088537
C	-1.3295899438	-0.6142408374	 0.0134917532	 0.24059
C	-2.3593685199	-0.6302937521	-0.9889194574	 0.153736
N	-3.1846661224	-0.6482749153	-1.7994399038	-0.35097
H	 0.8699831214	 1.8221543911	-0.0920568009	 0.29221
H	 0.755475899	-0.3464290106	-0.757005025	 0.080637
H	 0.7728534941	-0.6381847616	 2.1387071513	 0.085584
H	-1.943091453	 0.6011958783	 1.9590782842	 0.103667
H	-1.5511392198	-2.1406324393	 2.8667230457	 0.103805
H	-2.8323529026	-2.1420349019	 1.6015637303	 0.117697
H	-0.302439372	-2.732794196	 0.3017945668	 0.092368
