14
gdb 47965	3.04638	0.84469	0.69407	3.2447	83.97	-0.2599	-0.0707	0.1893	1542.2392	0.097919	-399.452265	-399.44312	-399.442175	-399.487325	31.789	
O	-0.1627243161	 0.0787541203	 0.4081083853	-0.226107
C	-0.0102553222	 1.2044005987	-0.0074296353	 0.014079
C	 1.2427861209	 1.9123570596	-0.0038838979	 0.030048
C	 2.2797899405	 2.5345758837	-0.0201102223	 0.065895
C	 3.5125667675	 3.2720413348	-0.0187458028	-0.012773
C	 3.7711987391	 4.1558360071	-1.2211529866	-0.25102
N	 3.4258141823	 4.7663662602	 0.048554266	-0.323578
C	 4.6208853452	 2.6736364416	 0.6831221459	 0.291043
C	 5.5462756868	 2.1589702882	 1.2489439218	-0.432359
H	-0.8538169897	 1.7852407005	-0.4334233131	 0.09979
H	 4.805376094	 4.2799272288	-1.5263216604	 0.14992
H	 3.0403705503	 4.1227584963	-2.0238015151	 0.137005
H	 2.4429640399	 5.0311150689	 0.0614589518	 0.25132
H	 6.3607975715	 1.7064706112	 1.7588764727	 0.206736
