21
gdb 104889	2.32434	1.43329	1.19906	1.4042	74.36	-0.2433	0.0683	0.3116	1170.2973	0.181178	-461.362741	-461.352723	-461.351779	-461.398052	35.814	
C	 0.6901147463	-0.72552528	 1.4167667786	-0.392323
C	-0.006772768	-0.1097607016	 0.1997883888	-0.216738
C	 0.7314643585	-0.2980729038	-1.1290393478	 0.455896
C	 0.8195454178	-1.7751169737	-1.5462594695	-0.106651
O	 1.4777130363	-1.8537093077	-2.8005032505	-0.427323
O	 0.0468149121	 0.4512490229	-2.1182507806	-0.296994
C	 1.0026133695	 1.0152527902	-3.0076151829	-0.100178
C	 2.3520520119	 0.8907027106	-2.2630472937	-0.097743
O	 2.0242903723	 0.2718048144	-1.0248450815	-0.295508
H	 0.7072726471	-1.81924978	 1.3766910621	 0.11297
H	 1.7222758624	-0.3724118322	 1.4877128111	 0.138106
H	 0.1687179585	-0.442786561	 2.3361202021	 0.112411
H	-1.0204473022	-0.5102596367	 0.0879100618	 0.102579
H	-0.1063276316	 0.9717057169	 0.3320921807	 0.109159
H	 1.3703640373	-2.3295631289	-0.7743238044	 0.094029
H	-0.2023212962	-2.1798002334	-1.6031862251	 0.090957
H	 1.591581754	-2.7808616636	-3.0249554624	 0.291595
H	 1.0185517407	 0.4668638783	-3.9547067505	 0.111632
H	 0.7180670281	 2.0553867427	-3.1976736639	 0.101785
H	 3.0614325091	 0.2751933521	-2.8252197102	 0.11048
H	 2.8092492162	 1.8618908444	-2.0471849621	 0.101859
