20
gdb 77589	2.76049	1.4166	1.20668	2.9845	79.33	-0.2374	0.0727	0.31	1132.8872	0.169475	-403.089306	-403.080439	-403.079494	-403.122378	34.117	
C	-0.0949491696	 1.5353309953	 0.0489430561	-0.416242
C	-0.0313746173	 0.0169996919	-0.0324265052	-0.15982
C	 0.7137306279	-0.6274327575	-1.2416306891	 0.365135
C	 0.0934996237	-1.1762710001	-2.4647519598	-0.316855
N	 1.051757101	-0.0515029368	-2.5349134768	-0.362254
C	 1.7041808395	-1.2701564201	-0.2980360708	-0.136276
O	 2.2931454089	-0.2077177354	 0.4776459882	-0.288901
C	 1.0058618241	-0.7011945072	 0.8725837214	 0.422909
C	 0.8246115552	-1.1917763932	 2.2717948574	-0.50567
H	 0.9115948605	 1.9587989573	 0.0042840384	 0.142167
H	-0.6830208836	 1.9529120328	-0.7767845769	 0.108103
H	-0.5693595475	 1.8628011996	 0.980162864	 0.116298
H	-1.0260072222	-0.4283191331	 0.0843854205	 0.076325
H	 0.4527703997	-2.1051793253	-2.9007998911	 0.119069
H	-0.9644542139	-0.981667686	-2.6271576882	 0.110146
H	 0.5576197585	 0.8282785957	-2.6687774194	 0.231966
H	 2.2833339134	-2.179396022	-0.4145942545	 0.102343
H	 0.7267665153	-0.3528954718	 2.9702847146	 0.131235
H	-0.078648069	-1.8048889345	 2.3550505521	 0.124115
H	 1.6862114552	-1.7897895995	 2.5800216493	 0.136208
