16
gdb 22296	2.8338	1.26015	0.91421	3.901	68.52	-0.2605	-0.0093	0.2512	1210.0281	0.124165	-475.025038	-475.016863	-475.015918	-475.058586	30.213	
O	 0.0234141121	 1.3185850326	 0.1870806403	-0.391704
N	 0.0616986339	-0.0759689727	 0.3284085218	-0.197174
C	-1.0340714005	-0.6118258185	-0.0442771324	 0.373904
C	-1.1649016512	-2.1052002029	 0.0146545128	-0.298569
C	-1.9291827689	-2.5664914581	-1.2223443978	-0.082521
O	-3.2467198087	-1.9964128415	-1.2627358292	-0.220503
C	-3.4320896924	-0.6848403493	-0.9695897079	 0.401584
O	-4.5361034408	-0.2201339137	-1.0284932109	-0.321869
C	-2.2118347569	 0.1496224846	-0.5977412434	-0.437351
H	 0.8959330188	 1.5811622806	 0.4992257419	 0.31206
H	-0.1800920394	-2.5743318227	 0.0710864135	 0.133162
H	-1.7353397603	-2.4052362084	 0.9040212645	 0.133671
H	-1.3882560813	-2.3010799635	-2.1397050337	 0.121605
H	-2.0864883986	-3.6467047474	-1.2191504831	 0.133308
H	-2.5445416255	 0.9258083784	 0.0963662959	 0.171726
H	-1.8940209802	 0.6957785525	-1.4965087524	 0.168671
