16
gdb 81515	2.25228	1.9759	1.19355	2.0339	71.13	-0.2433	0.0185	0.2617	1007.5045	0.122633	-437.761555	-437.753481	-437.752537	-437.793544	32.375	
N	 0.1941625608	 1.4330421668	 0.0100475223	-0.582074
C	 0.120600198	-0.0077012104	-0.0486833789	 0.18519
C	 1.1288186598	-0.5171961234	-0.9682457436	 0.241727
C	 1.9514177224	-0.9015005283	-1.7590630881	-0.419417
C	-0.0925335942	-0.6901946774	 1.3485272466	-0.047845
O	-1.4689252492	-0.1468066829	 1.3460624034	-0.31464
C	-1.3056935661	-0.7139999341	-0.0075663246	-0.080447
C	-0.6981156783	-1.9722652925	 0.6886763527	 0.154227
O	 0.0274024865	-2.9642802289	 0.0556940906	-0.430412
H	 0.1195825747	 1.8343907385	-0.9187747064	 0.233083
H	-0.5845793322	 1.7639329761	 0.5730391926	 0.245409
H	 2.6863937139	-1.240293226	-2.4479969852	 0.208733
H	 0.5020733798	-0.5546873493	 2.25255246	 0.104421
H	-2.1400404863	-0.6098219415	-0.7029878311	 0.096953
H	-1.4234954948	-2.4444596288	 1.3509784258	 0.112977
H	 0.6745684052	-2.5621039779	-0.538722696	 0.292114
