22
gdb 54910	3.42342	1.02811	0.91715	3.3865	83.12	-0.2432	0.0312	0.2744	1371.9645	0.192896	-404.387792	-404.377428	-404.376484	-404.424652	38.101	
C	-0.4482591252	 1.5157289446	-0.2301950827	-0.447152
C	 0.0661825107	 0.1000111352	 0.0179133471	 0.378869
C	-1.0289360801	-0.9407453697	-0.2140037899	-0.454072
C	 1.3999795488	-0.2427256895	-0.723652321	-0.276483
C	 2.1120465178	-0.5199022689	 0.6385596841	-0.084279
C	 0.8078677004	-0.0889676006	 1.3819292225	-0.276492
C	 2.4841985955	-1.9758416566	 0.8494780426	 0.409869
N	 3.7750747824	-2.2065724171	 1.2268745403	-0.533131
O	 1.6874648623	-2.88601186	 0.6937523143	-0.372344
H	 0.3350270202	 2.2643465006	-0.0646823132	 0.102011
H	-0.8055692628	 1.6298765032	-1.2605651165	 0.111018
H	-1.2834508752	 1.7541068088	 0.4391280275	 0.111027
H	-1.4011283423	-0.8946058912	-1.244547163	 0.101966
H	-0.6409444174	-1.9463731782	-0.031266924	 0.148815
H	-1.8796880721	-0.7701603534	 0.4566704411	 0.101985
H	 1.3440295124	-1.1110670334	-1.3833099264	 0.113898
H	 1.8348592276	 0.5953268567	-1.2745125462	 0.089399
H	 2.9658092088	 0.1349923112	 0.830703786	 0.05505
H	 0.9252099003	 0.8313825296	 1.9599297516	 0.089371
H	 0.3851122263	-0.8622681374	 2.0265880927	 0.11397
H	 4.440717118	-1.4666736839	 1.3582828901	 0.257897
H	 4.0667388738	-3.1585571198	 1.3778098029	 0.258809
