14
gdb 132211	1.89508	1.82523	0.93162	4.9643	70.82	-0.2052	-0.0063	0.1988	1138.8353	0.101361	-478.000132	-477.992546	-477.991602	-478.032103	29.304	
O	 0.0868073072	 1.3453589449	 0.1638878785	-0.427558
C	 0.0102828694	-0.0057270578	 0.0535699863	 0.44532
C	-1.1494524033	-0.6829842129	 0.0506430199	-0.260165
C	-1.1866269283	-2.1439253256	 0.0110144761	 0.34088
N	-2.3235321643	-2.7525377474	 0.0116549702	-0.558555
C	 0.1335745268	-2.7822612817	-0.0514384822	-0.400398
C	 1.2437966716	-2.0343124019	-0.0463285529	 0.393649
F	 2.4736911597	-2.5341806674	-0.0645349863	-0.065431
N	 1.2408462539	-0.6564783403	-0.0404107081	-0.471708
H	 0.7447887056	 1.6833389986	-0.4562784868	 0.303422
H	-2.0846508293	-0.1405803269	 0.0602497196	 0.1231
H	-2.1820571411	-3.7635695046	-0.0338333928	 0.199504
H	 0.2215290112	-3.8597127542	-0.1090354641	 0.114095
H	 2.0468091108	-0.2035314529	 0.3685924426	 0.263843
