19
gdb 90231	2.60425	1.6931	1.51111	1.6161	73.89	-0.2262	0.0536	0.2797	973.2188	0.159081	-422.942746	-422.934932	-422.933987	-422.974771	31.252	
O	 0.2672874329	 1.1648685665	-0.5833181125	-0.428639
C	 0.0977192399	-0.123066122	-0.0386526159	 0.053437
C	 0.1992899291	-0.2364713916	 1.5391315425	-0.344605
C	-1.2898963548	-0.6613611706	 1.5496310997	 0.403273
C	-2.4584186233	 0.3310279441	 1.7781913792	-0.296879
C	-2.5160256856	 0.5371725611	 0.2129228231	-0.300776
C	-1.4001536676	-0.5300242633	 0.0445700877	 0.193217
C	-1.7445494283	-2.0300063217	 0.0861086852	-0.157614
O	-1.5890019199	-2.0728624832	 1.5435681596	-0.338717
H	 1.1829344286	 1.4300481844	-0.4481537272	 0.286147
H	 0.7167297981	-0.8626495124	-0.567845497	 0.067824
H	 0.890386031	-0.9938794524	 1.915000751	 0.11085
H	 0.4036023889	 0.7226750802	 2.0242925787	 0.101551
H	-3.3393375417	-0.1509037347	 2.2073534335	 0.114275
H	-2.2223533558	 1.2233987282	 2.3637967423	 0.101783
H	-3.4705118922	 0.2954417872	-0.2614621357	 0.101686
H	-2.201873493	 1.5284464333	-0.116247692	 0.128564
H	-2.7644495287	-2.2965743817	-0.2177902341	 0.103512
H	-1.0354967876	-2.7027606313	-0.4138028283	 0.101113
