17
gdb 7307	3.9656	1.25606	1.05686	2.7853	66.16	-0.2515	-0.0311	0.2204	1122.1902	0.139887	-401.053282	-401.044088	-401.043144	-401.087702	31.868	
C	-0.0068147677	 1.4893684235	-0.1927160128	-0.407033
C	 0.0373534167	-0.0388280303	 0.0088747007	-0.052105
N	 0.7144686354	-0.4102411608	 1.2330711458	-0.27674
C	 2.0603752976	-0.3468867351	 1.3687132468	 0.152408
O	 2.8211835698	 0.1003787507	 0.5323468032	-0.335386
C	-1.3646194444	-0.6541651293	 0.0365316197	 0.384197
C	-2.2310165784	-0.4617678711	-1.1895239527	-0.481119
O	-1.7578802731	-1.2583232656	 1.0105884251	-0.310661
H	 1.0168108753	 1.8669599297	-0.180688927	 0.166319
H	-0.4608842368	 1.7500115847	-1.1525563442	 0.120168
H	-0.5732354822	 1.9699679616	 0.6106614597	 0.125
H	 0.5791265844	-0.4712712816	-0.8443457999	 0.121625
H	 0.1429312006	-0.8898500462	 1.9156546673	 0.260913
H	 2.400461491	-0.7457452021	 2.3445519696	 0.081104
H	-2.6272486606	 0.5597685561	-1.2037415325	 0.157483
H	-1.6593217166	-0.5997839164	-2.1120641013	 0.142642
H	-3.0679753311	-1.1599000477	-1.1534185075	 0.151184
