21
gdb 122751	7.45759	0.38523	0.37877	1.1991	86.72	-0.2427	0.0363	0.279	2848.7969	0.179216	-424.177276	-424.165667	-424.164723	-424.217127	38.417	
C	 0.0105237683	 1.3578205978	-0.2261329432	-0.228819
O	-0.0087984108	-0.0483163359	-0.2503911242	-0.23133
C	-1.2759905459	-0.5861500114	 0.052167531	-0.050256
C	-1.1840305421	-2.104887511	-0.0066235965	-0.186878
C	-2.530688926	-2.7776548488	 0.3216873325	-0.360389
C	-2.4742579744	-4.2334049127	 0.2658379637	 0.015832
C	-2.4079846266	-5.4337439697	 0.2058877435	 0.156821
C	-2.3253087854	-6.8874390763	 0.1586700838	-0.216283
O	-2.9121079361	-7.3640178362	-1.0478408182	-0.409764
H	 1.0267215198	 1.6763295893	-0.4711137113	 0.126959
H	-0.6846620925	 1.7903122052	-0.9637026104	 0.102664
H	-0.2563261012	 1.7546123972	 0.7667454971	 0.102046
H	-1.6037093815	-0.2583094318	 1.0553667365	 0.082033
H	-2.0318505301	-0.2181524201	-0.6649329761	 0.08343
H	-0.8539924931	-2.4071380899	-1.0054263459	 0.12111
H	-0.4185484261	-2.4451893536	 0.6980486194	 0.11726
H	-2.8657610171	-2.4632340998	 1.319619942	 0.12731
H	-3.2995570356	-2.4221203152	-0.3777495222	 0.132429
H	-1.267841674	-7.1906773936	 0.231906619	 0.114261
H	-2.8365907052	-7.307178006	 1.0407796994	 0.113444
H	-2.8329729044	-8.3234366575	-1.04386576	 0.28812
