17
gdb 75817	3.16854	1.32025	1.10327	3.0106	68.4	-0.2653	-0.0014	0.2639	1114.7137	0.135072	-458.974432	-458.965978	-458.965034	-459.008101	30.876	
O	 0.1493754787	 1.2622728977	-0.425608293	-0.423387
C	 0.1342827793	-0.0992501495	-0.0923872896	-0.139027
C	 0.1494427297	-0.4463466957	 1.4025857827	 0.408613
O	 0.8472344261	-0.2253098693	 2.3412384435	-0.335191
O	-1.0333931897	-1.1262152653	 1.3571950565	-0.275966
C	-1.2569296307	-0.770066978	-0.0549044284	 0.439799
C	-2.5108859366	 0.0337698549	-0.4251909473	-0.283826
C	-2.6262510719	-0.8501037748	-1.7021122477	-0.215995
C	-1.6601519398	-1.8754486538	-1.0388942796	-0.298119
H	 0.86838411	 1.6791665003	 0.0628409979	 0.305595
H	 0.8726869711	-0.6782476301	-0.6656728885	 0.104739
H	-3.3155030135	-0.1633730966	 0.2877521276	 0.121962
H	-2.379536973	 1.1094548182	-0.5451866517	 0.128836
H	-3.6207698971	-1.2108842344	-1.96717237	 0.110764
H	-2.1813183797	-0.368280465	-2.5754728606	 0.118424
H	-0.8701116326	-2.3224266186	-1.6474501379	 0.10698
H	-2.2019562303	-2.66972611	-0.5187894738	 0.125798
