18
gdb 119595	3.81487	1.16012	1.0239	0.9752	71.65	-0.2438	0.0113	0.2552	1186.8152	0.147626	-439.063428	-439.05509	-439.054146	-439.097271	30.635	
C	 0.3976179092	 0.646342269	-0.0171086855	-0.233476
O	-0.8677363808	 0.4222052125	-0.6091816875	-0.226455
C	-1.7045836585	-0.43706544	 0.1344588786	-0.17931
C	-1.2849784963	-1.8901872082	 0.1120934206	 0.311183
C	-1.184598538	-2.6463728455	-1.1987359399	-0.340682
C	-2.1927836247	-3.0828766332	-0.1808841314	 0.011008
O	-1.780168496	-4.0993249544	 0.7213357038	-0.21174
C	-0.730032169	-3.5634770109	 1.3973028709	 0.094055
N	-0.3922217042	-2.3613441403	 1.1573312651	-0.303743
H	 0.9192281707	 1.3684076185	-0.6502236855	 0.120174
H	 0.2967486582	 1.0655285819	 0.9959224753	 0.103885
H	 0.9931754732	-0.2722533176	 0.0534718858	 0.128813
H	-1.774666564	-0.1055053672	 1.1824512286	 0.098551
H	-2.69698497	-0.3430761672	-0.3195197789	 0.103922
H	-1.577544548	-2.1383634382	-2.0724896892	 0.133316
H	-0.3103532188	-3.264478733	-1.3730572781	 0.12618
H	-3.2617672666	-3.0751095268	-0.3509227336	 0.117964
H	-0.2627046363	-4.2293262893	 2.112251421	 0.146356
