21
gdb 107410	3.01188	1.2444	1.02101	1.0329	78.66	-0.2391	0.0892	0.3283	1264.7179	0.181224	-424.221376	-424.212279	-424.211335	-424.255126	34.636	
C	 0.1988874497	 1.5407082803	-0.135873596	-0.373929
C	-0.0424706355	 0.0414998136	 0.0773042209	-0.262705
C	 0.6968339947	-0.5014892328	 1.2715886944	 0.413311
C	 2.1491434466	-0.9383765505	 1.2388109568	-0.359273
C	 1.0440023165	-1.9296210943	 1.5448616456	 0.0013
O	 0.7915809064	-2.1607925192	 2.9102220246	-0.273667
C	-0.0629531202	-1.099622416	 3.3252273795	 0.2236
C	 0.1405089295	-0.7951508897	 4.7899849279	-0.405588
O	 0.2875842207	 0.0229452094	 2.5252277834	-0.311834
H	 1.2585412212	 1.7464126637	-0.3186983215	 0.117823
H	-0.3718072866	 1.9120083064	-0.9921443958	 0.10931
H	-0.1043633747	 2.1064317183	 0.7494328662	 0.134419
H	-1.1150005264	-0.1478708164	 0.210484648	 0.102292
H	 0.2695339987	-0.5209897214	-0.8107949148	 0.097292
H	 2.6339127205	-1.0121493765	 0.2698157787	 0.110451
H	 2.7825658851	-0.6367625173	 2.0645642306	 0.122591
H	 0.811740941	-2.7564360847	 0.8812988252	 0.101467
H	-1.1109596705	-1.3807002642	 3.1138553272	 0.064752
H	 1.1831057036	-0.5219280332	 4.9684556292	 0.130719
H	-0.5054560195	 0.0333338688	 5.0913680872	 0.128425
H	-0.1093442506	-1.6734042141	 5.3905764429	 0.129246
