21
gdb 38609	2.52952	2.16956	1.59201	0.1052	84.63	-0.2413	0.0917	0.3331	935.9082	0.186943	-349.940847	-349.934236	-349.933292	-349.971273	29.041	
C	-0.0703404592	 1.4438527366	-0.1158838479	-0.403759
C	 1.3018776655	 0.8033668159	-0.0069864076	-0.038087
C	 2.1727005805	 0.3501520985	-1.1764042621	-0.258194
C	 1.4489733268	-0.8829234913	-1.7125844469	-0.034012
C	 0.9279402708	-2.0206773184	-0.8127418996	-0.041721
C	 1.0043697343	-2.0577414788	 0.7293066806	-0.229523
C	-0.0518533686	-1.0104342701	 1.2042192181	-0.290487
C	 0.0395472179	-0.040810362	 0.0406312344	 0.335372
C	 0.0270031677	-0.8874757693	-1.2244913128	-0.126191
H	-0.3848627131	 2.0529513455	 0.7263380526	 0.109319
H	-0.4161543128	 1.8129708658	-1.0776721873	 0.108486
H	 1.8071107977	 0.981318377	 0.937527753	 0.078521
H	 2.2642504884	 1.1010243593	-1.9724336772	 0.095591
H	 3.191268996	 0.1350170963	-0.8315518336	 0.096012
H	 1.6657460083	-1.1931753325	-2.7317493258	 0.073813
H	 0.8566596813	-2.975741973	-1.3227144681	 0.079513
H	 0.7841633927	-3.0653121011	 1.0947499879	 0.092704
H	 1.9991757655	-1.7924320361	 1.1041869535	 0.098513
H	-1.0421238706	-1.4749329309	 1.2876767979	 0.090724
H	 0.1921298725	-0.5602875289	 2.1715015385	 0.090332
H	-0.8538778617	-0.9780672627	-1.8507566077	 0.073074
