19
gdb 30937	2.33725	1.3169	0.89392	4.2353	80.	-0.183	0.0448	0.2278	1323.8798	0.159457	-419.286755	-419.277156	-419.276212	-419.321342	34.933	
C	 0.0227501366	 1.623631171	 0.3063273143	-0.367111
C	 0.0016682382	 0.1253237254	-0.0484889006	-0.30381
C	-1.3700854766	-0.4591380565	-0.1177046513	 0.243113
C	-2.0876888588	-0.9489700617	-1.1571743257	 0.223973
C	-1.7627962425	-1.0936740585	-2.6029619558	-0.503866
N	-3.3275903561	-1.3495522649	-0.6432871944	-0.393965
C	-3.4161448348	-1.1281429647	 0.7240422982	 0.431178
O	-4.3423049229	-1.3682257048	 1.4744989649	-0.436196
N	-2.1828624477	-0.5654390996	 1.0199045827	-0.398952
H	 1.0505721225	 1.9949213235	 0.3616559996	 0.116711
H	-0.51559573	 2.2085931052	-0.4451340189	 0.124929
H	-0.4525172106	 1.812668802	 1.2742799694	 0.117229
H	 0.4954940951	-0.0287245977	-1.0127106823	 0.113308
H	 0.6005384483	-0.4269052453	 0.6895498594	 0.109744
H	-1.8210477592	-2.1399585646	-2.9289884316	 0.131978
H	-2.4519903185	-0.5182054712	-3.2339210487	 0.132446
H	-0.7511165785	-0.7383989889	-2.8092353379	 0.137077
H	-4.0796112805	-1.7693668318	-1.16032243	 0.26112
H	-1.933139394	-0.3066842667	 1.9577514588	 0.261095
