18
gdb 86596	2.49136	1.37564	1.19611	3.5456	72.59	-0.2438	-0.0259	0.2179	1124.7213	0.146459	-439.053794	-439.045085	-439.044141	-439.087734	31.903	
C	 0.6114179941	 1.4434591958	-0.2152701903	-0.385029
C	 0.0939545429	 0.0275415142	 0.00401561	-0.08406
N	 0.7422448947	-1.0096571829	-0.8602357454	-0.326536
C	 1.2586255039	-1.7903555495	 0.2945705043	-0.160852
C	 2.7652122039	-1.9125139971	 0.3609976848	 0.086927
C	 3.6083327886	-1.7157372938	-0.8236107452	-0.168105
O	 3.4959839372	-0.7000161891	 0.1775933451	-0.231973
C	 0.6472865496	-0.7169075209	 1.2314552442	 0.40137
O	 0.6171789629	-0.5477888283	 2.4115332988	-0.290497
H	 1.7039606638	 1.4430506858	-0.1895393755	 0.14869
H	 0.2857255637	 1.8240467051	-1.1880750772	 0.11891
H	 0.2329172729	 2.1106014665	 0.5653730287	 0.127109
H	-1.0045748183	 0.0033525572	-0.0168959179	 0.096275
H	 0.0822003136	-1.5302417316	-1.4247722609	 0.225545
H	 0.8052812188	-2.7808417356	 0.4393087717	 0.095217
H	 3.1322047667	-2.538783472	 1.1748453657	 0.104771
H	 4.5782444913	-2.2072833273	-0.8821790508	 0.114595
H	 3.1252724497	-1.4768527463	-1.7677102501	 0.127643
