23
gdb 101664	2.60161	0.79988	0.75549	3.8417	83.89	-0.2422	-0.0155	0.2267	1669.6207	0.201521	-425.43391	-425.422313	-425.421369	-425.472572	40.016	
C	-0.080606939	 1.4580584087	-0.104719499	-0.235157
O	-0.0892444903	 0.0801191588	 0.1864110139	-0.24125
C	-1.3403386545	-0.5684079696	 0.0017759807	 0.130408
C	-1.6789003624	-0.7621143012	-1.4799557279	-0.404165
C	-1.2463497912	-1.9146590419	 0.7272025139	-0.211884
C	-0.8634637281	-1.8176902451	 2.2212132568	-0.055289
C	-1.8956706106	-1.0481642642	 3.061843954	-0.415462
C	-0.7310914662	-3.2272431563	 2.7632102379	 0.156927
O	 0.295945576	-3.7513117109	 3.1082914994	-0.249758
H	 0.8948181735	 1.8441341137	 0.2016990886	 0.130087
H	-0.2151352103	 1.6677433036	-1.1755703707	 0.108581
H	-0.8644074567	 1.9962939548	 0.4517557268	 0.10178
H	-2.1318218834	 0.0452565376	 0.4642690572	 0.0647
H	-2.6328556614	-1.2877424441	-1.5886428421	 0.11671
H	-1.768999195	 0.1949694197	-2.0010892428	 0.11762
H	-0.8994386633	-1.3508618793	-1.9736946929	 0.126498
H	-2.2083712849	-2.4327951308	 0.6213498892	 0.095924
H	-0.4961413676	-2.52492532	 0.2096375346	 0.116761
H	 0.1170031534	-1.3422481592	 2.2996696922	 0.111735
H	-2.888955506	-1.5072407268	 2.9922833225	 0.116442
H	-1.6067141849	-1.0309255104	 4.1172865087	 0.127389
H	-1.9804781157	-0.0115404263	 2.7269265745	 0.130095
H	-1.7008634614	-3.7820418206	 2.8177395544	 0.061311
