15
gdb 3408	4.0634	2.80079	2.2985	1.6839	56.11	-0.2333	0.0703	0.3036	641.845	0.124948	-345.604177	-345.597757	-345.596813	-345.634059	24.821	
C	-0.0913870006	 1.5821648462	 0.0160123228	-0.419563
C	 0.1577472026	 0.087578163	 0.0375421683	 0.14579
O	 1.3181673124	-0.3532069265	-0.7517384067	-0.324014
C	 1.7527483111	-1.1899703249	 0.3315749232	 0.021594
C	 2.1905575243	-0.3148643649	 1.4487101379	 0.128679
O	 2.7914871151	 0.9194945452	 1.2124444223	-0.433016
C	 0.7053573539	-0.6102915242	 1.2808226091	-0.200882
H	 0.7364019892	 2.1334164042	 0.4642384264	 0.140103
H	-0.2444637131	 1.9266155165	-1.0120948548	 0.125609
H	-1.0015238189	 1.8067684373	 0.5829345507	 0.122002
H	-0.7192058203	-0.4489452209	-0.3468898295	 0.088857
H	 2.0784150099	-2.1961402227	 0.0915898948	 0.103857
H	 2.6308701547	-0.8250034466	 2.3012599432	 0.109383
H	 2.7499040398	 1.0482792081	 0.2545776934	 0.293529
H	 0.1094625599	-1.0847815298	 2.0496025789	 0.098073
