21
gdb 107254	2.73656	1.53538	1.15476	0.9048	82.45	-0.1925	0.0903	0.2828	1144.034	0.180894	-387.006975	-386.99803	-386.997086	-387.040306	34.858	
C	-1.0364076696	 1.6912173204	-2.0458000375	-0.255391
O	-1.1399810719	 1.2561939668	-0.7088541138	-0.274346
C	-1.9449354741	 0.15603603	-0.4795272202	 0.400879
C	-2.1246892405	-1.0367775008	-1.3680212916	-0.380239
C	-3.3457419342	-0.2325725792	-0.9238118236	-0.157571
C	-3.739343134	-0.45973045	 0.5612839577	-0.093006
C	-2.8647072319	-1.4521626223	 1.2867500305	-0.353555
C	-2.3438754404	-0.0645076321	 1.0149854049	 0.27731
C	-1.9131028107	 0.8971057358	 2.0844546087	-0.483676
H	-0.4734783779	 2.6269801284	-2.0287476642	 0.129493
H	-0.4986712859	 0.9680534799	-2.6748494509	 0.114188
H	-2.0248612094	 1.8781579861	-2.490096717	 0.110918
H	-1.8782983333	-0.8547278581	-2.4102632146	 0.109724
H	-1.9339439189	-2.0622298146	-1.0664477453	 0.109072
H	-4.0162288972	 0.2070173326	-1.6508386702	 0.089368
H	-4.6870527729	-0.1265762057	 0.9664061777	 0.084981
H	-3.1453174697	-1.615104059	 2.3240717009	 0.10767
H	-2.4700092642	-2.3426119393	 0.8106750186	 0.108795
H	-0.8631103035	 0.7465141079	 2.3622958168	 0.120164
H	-2.0179678264	 1.9337851199	 1.7509313509	 0.125411
H	-2.5193743934	 0.7624372034	 2.9861891322	 0.109811
