19
gdb 41905	2.23549	2.00205	1.77918	0.6772	69.47	-0.2507	0.0745	0.3252	907.9536	0.162656	-460.160067	-460.152978	-460.152033	-460.191402	28.536	
C	 0.0670567651	 1.4730966087	 0.1752127575	-0.081934
O	 1.3185084274	 2.033576198	-0.2220992113	-0.260413
C	 2.3623440039	 1.0931088167	-0.2696597901	 0.202294
C	 2.6390375672	 0.4274672325	 1.1000951807	-0.265693
C	 1.8637033299	-0.8742461501	 1.3020929236	-0.072389
O	 0.4564229839	-0.7467212725	 1.1447128328	-0.2715
C	 0.0247214064	-0.0499635521	-0.0182701772	 0.051053
C	 0.8094410946	-0.3996588544	-1.2867643286	-0.094079
O	 2.1413175531	 0.1184011346	-1.274494835	-0.269631
H	-0.1475034541	 1.7073432033	 1.226262711	 0.106183
H	-0.6971954525	 1.9485054566	-0.449605982	 0.110134
H	 3.237980416	 1.6579904943	-0.5985073095	 0.093076
H	 3.7069295246	 0.1897403629	 1.1612183623	 0.108781
H	 2.4205751616	 1.152322605	 1.8913334494	 0.115662
H	 2.2571495907	-1.6302513989	 0.6084022563	 0.105647
H	 2.00895889	-1.2508410858	 2.3187129728	 0.108814
H	-1.0176098297	-0.3565783761	-0.1553897207	 0.091344
H	 0.8702273996	-1.4856579458	-1.4171533992	 0.115729
H	 0.2684314224	 0.0169447233	-2.1480826429	 0.106923
