19
gdb 16840	3.32754	1.9646	1.51643	2.6018	71.47	-0.2367	0.0755	0.3121	912.6824	0.166197	-365.05168	-365.043987	-365.043042	-365.083317	29.808	
C	 0.1881863904	 1.5593922413	-0.0889725829	-0.401228
C	 0.0519851658	 0.0501067577	 0.0399236988	 0.148301
O	 0.6630603323	-0.5589413408	-1.0996787161	-0.287636
C	 1.2114858995	-1.8349826497	-0.7620443773	 0.148301
C	 2.429035017	-2.0837316453	-1.6388602389	-0.401228
C	 1.4787487583	-1.757905927	 0.7329054008	-0.069274
N	 2.2247245324	-0.5367329743	 1.1060007832	-0.331631
C	 0.7521103126	-0.5765553796	 1.2354842889	-0.069274
H	 1.2441528431	 1.8376578345	-0.055912012	 0.138782
H	-0.2374783315	 1.898708679	-1.037176591	 0.122732
H	-0.3413989457	 2.0643536398	 0.7256268305	 0.104895
H	-1.0152264611	-0.2292936386	 0.0895568325	 0.061851
H	 0.4583788339	-2.6250482318	-0.9296600819	 0.061851
H	 3.2032095233	-1.3473344279	-1.4109061005	 0.138782
H	 2.8282135715	-3.0887257682	-1.4666346274	 0.104895
H	 2.1593709608	-1.9980525648	-2.6949648909	 0.122733
H	 1.5995570115	-2.6680191161	 1.3110449575	 0.088174
H	 2.6411713121	-0.6712131651	 2.024212794	 0.2308
H	 0.2903298437	-0.539510123	 2.2165716728	 0.088174
