14
gdb 1593	4.02057	2.2378	1.51834	3.0247	59.59	-0.244	0.0284	0.2724	783.103	0.111508	-324.583096	-324.575038	-324.574094	-324.615648	28.782	
C	-0.2502452112	 1.6168711283	 1.2044527322	-0.382737
C	-0.19115168	 0.4260500228	 0.2249105314	-0.288742
C	 0.7553818997	-0.5972894598	 0.6560854192	 0.319395
C	 1.5290073285	-1.4427650051	 1.0234609907	-0.454801
C	-1.6288347679	-0.0964331946	-0.0412168292	 0.437069
N	-1.7910971604	-1.4410200806	 0.0023861172	-0.536598
O	-2.5247588164	 0.6833757645	-0.2971153129	-0.367746
H	 0.7236834418	 2.1072004908	 1.2685725745	 0.122973
H	-0.9979875072	 2.3270980616	 0.8489728291	 0.150071
H	-0.5328637899	 1.2788175971	 2.2051393707	 0.1284
H	 0.1386238395	 0.809768587	-0.7504374536	 0.139947
H	 2.2257215239	-2.1773713653	 1.3446416507	 0.202241
H	-1.0352269727	-2.0498155506	 0.2665014234	 0.268625
H	-2.7102807278	-1.8170335759	-0.1603409634	 0.261902
