19
gdb 42108	2.3713	1.69264	1.10402	1.2255	85.24	-0.2247	-0.0233	0.2014	1112.7211	0.161096	-385.848929	-385.840841	-385.839897	-385.881168	31.605	
C	-0.0441889694	 1.49845243	 0.0424620995	-0.196885
C	 1.399887179	 2.020120587	-0.0054769105	-0.066302
O	 2.1729393208	 1.565204162	 1.1084235687	-0.247156
C	 3.3639034392	 0.8492547763	 0.7929434047	-0.192835
C	 3.0453659121	-0.2706092694	-0.0977473763	-0.054064
C	 2.3359609016	-0.840865459	-0.8961158744	 0.145707
C	 1.2106506569	-1.2216013579	-1.6663362705	-0.203051
C	 0.0025973885	-0.779957732	-1.264747718	-0.040135
C	-0.2491897415	-0.039327422	 0.027500346	-0.246207
H	-0.5042573553	 1.8750832945	 0.9641259537	 0.107021
H	-0.5893410865	 1.9624541312	-0.7894223398	 0.094922
H	 1.8758184199	 1.7421264878	-0.9503028835	 0.115624
H	 1.3712510431	 3.1174493064	 0.0423949446	 0.096655
H	 4.1127948805	 1.5075344654	 0.3238183626	 0.119199
H	 3.7747130481	 0.5238996376	 1.7538323516	 0.135804
H	 1.3286636232	-1.7904842562	-2.5826967603	 0.108948
H	-0.8591730453	-0.9988841331	-1.8915818939	 0.097871
H	 0.3933428244	-0.4583995427	 0.8095395672	 0.128191
H	-1.2857079692	-0.227873196	 0.3286351386	 0.09669
