17
gdb 84048	3.55693	1.20086	0.99538	1.821	84.07	-0.2321	-0.0325	0.1996	1201.6124	0.134945	-384.650874	-384.642717	-384.641772	-384.683421	31.501	
C	-0.1138355958	 1.5747544725	 0.1035040737	-0.394889
C	 0.0124454657	 0.0454509319	 0.0124080718	-0.054447
C	 0.7927216987	-0.4339850654	-1.1952252659	-0.20074
C	 1.8186059104	-1.2436048978	-0.8743440622	 0.2121
C	 2.7296233613	-1.8780513118	-1.7489459647	 0.21082
C	 3.5188904825	-2.4486885888	-2.4587670885	-0.423126
C	 1.8974598582	-1.3716663236	 0.6247152046	-0.099469
O	 2.1433882522	-0.1108673881	 1.2798216159	-0.251542
C	 0.7932000106	-0.5729665115	 1.1734541399	 0.031195
H	 0.8764810161	 2.0252116207	 0.2059403751	 0.142169
H	-0.5923662289	 1.9834561372	-0.7915679765	 0.116837
H	-0.7173492339	 1.8639584643	 0.9695321998	 0.118481
H	-0.9974443925	-0.3903630569	-0.007955534	 0.090871
H	 0.5547011302	-0.1148423564	-2.2035641105	 0.10799
H	 4.2134966707	-2.9391688646	-3.0946196992	 0.193989
H	 2.3359427546	-2.2432238617	 1.0996433366	 0.10328
H	 0.3009192901	-0.7981948797	 2.1158170139	 0.096482
