23
gdb 109260	2.79102	1.28186	1.01954	0.1889	91.46	-0.224	0.0321	0.256	1290.8616	0.207605	-351.169292	-351.160576	-351.159632	-351.202948	33.903	
C	 0.021235289	 1.2686103669	-0.274701322	-0.372231
C	-0.0378462459	-0.2107765438	 0.1467789696	-0.291194
C	 0.7159779123	-0.5028583821	 1.4132915575	 0.338892
C	 0.188994633	-0.8781127834	 2.5838430523	-0.175697
C	 1.2114836017	-1.0680192375	 3.6800245677	-0.274083
C	 2.5472677428	-0.9544380713	 2.9205037465	 0.001903
C	 3.0853407474	-2.2528164611	 2.2465994423	-0.21943
C	 3.0246475474	-1.5623155067	 0.8549590184	-0.223155
C	 2.2227162407	-0.3889106765	 1.4978718492	-0.114988
H	 1.0506553326	 1.5948346268	-0.4532263989	 0.119113
H	-0.5438528009	 1.4326903819	-1.1974969715	 0.111167
H	-0.4022663317	 1.9121741552	 0.5028298907	 0.118782
H	-1.0844219668	-0.5116258038	 0.2696977484	 0.099049
H	 0.367151209	-0.8241405698	-0.6703283071	 0.101544
H	-0.8743831775	-1.022814594	 2.7523391958	 0.078211
H	 1.104555067	-0.302734324	 4.4620214923	 0.097426
H	 1.1116754427	-2.0372281019	 4.1875319929	 0.09731
H	 3.3161298403	-0.413628408	 3.4753983399	 0.060388
H	 4.0717242534	-2.5922330304	 2.5719594077	 0.094442
H	 2.3884131321	-3.0904483666	 2.3412113719	 0.09923
H	 4.007952087	-1.246470208	 0.4953987688	 0.094938
H	 2.527788952	-2.1142956377	 0.052002513	 0.093586
H	 2.5812851525	 0.6139827258	 1.2419026247	 0.064797
