14
gdb 66670	4.72617	1.21648	1.17083	1.4803	73.12	-0.2186	0.0126	0.2311	1040.7753	0.098884	-399.378212	-399.370982	-399.370038	-399.409577	28.828	
O	-0.0956574724	 1.3827851521	-0.0501960215	-0.443333
C	 0.0312718447	 0.0261781197	-0.0232168221	 0.370243
C	-0.0338696964	-0.9990918379	 1.0850226317	-0.109776
C	-1.1047658015	-0.986893143	 0.0107342652	-0.239805
C	-0.225712353	-1.9834532651	-0.7956035854	 0.357209
C	-0.5362538152	-3.0919522694	-1.6179967979	 0.029194
C	-0.831289414	-4.0168403943	-2.3293521524	-0.360407
C	 0.9020925711	-0.9955142543	-0.8247418864	-0.215835
N	 0.8356609657	-1.981295544	 0.30187225	-0.204749
H	 0.6542157256	 1.7744864882	 0.4136442969	 0.297258
H	-0.088215632	-0.9484651346	 2.1646800181	 0.110596
H	-2.1702098808	-0.8215174925	 0.0678220069	 0.113501
H	-1.082900032	-4.8390441561	-2.9524189626	 0.18492
H	 1.7556027202	-0.9280884788	-1.4898526806	 0.110985
