20
gdb 76143	2.16601	1.27885	1.13751	14.6247	79.44	-0.168	-0.0288	0.1392	1214.9007	0.169611	-440.237448	-440.227524	-440.22658	-440.272023	36.666	
C	-0.210420963	 1.4944733416	-0.1661430003	-0.421382
C	 0.0154849437	 0.0066377436	 0.0134023817	-0.058364
C	 1.3882439086	-0.645514678	-0.168528217	-0.210538
C	 2.7054187838	 0.1563866572	-0.5152160492	 0.366194
O	 2.8177670806	 1.2670207617	 0.0537734822	-0.47108
O	 3.4376229986	-0.4473618875	-1.3015441347	-0.45367
C	 0.7606902077	-0.5445792174	 1.1968642569	 0.225646
C	 1.3171843154	 0.2499423028	 2.3445375333	-0.485148
N	 0.1984705753	-1.8710408442	 1.6899240524	-0.432711
H	 0.9420845917	-2.4207535731	 2.1309766615	 0.324067
H	-0.5496615497	-1.7377331937	 2.3777982162	 0.314796
H	-0.1682777787	-2.4116061352	 0.9031134935	 0.320906
H	 0.7276924648	 2.0294907835	-0.0089190298	 0.189151
H	-0.5430801871	 1.6879191442	-1.190674735	 0.12444
H	-0.9839916709	 1.8695525897	 0.5137167016	 0.093758
H	-0.826867256	-0.6064234057	-0.3153080206	 0.061549
H	 1.3808065535	-1.6324191403	-0.6293847289	 0.072446
H	 1.9050906607	 1.0576049572	 1.8922925992	 0.229844
H	 0.5320283498	 0.6483943419	 2.9988018446	 0.102494
H	 2.0097271011	-0.3533148584	 2.9466468122	 0.107601
