20
gdb 87630	2.41526	1.58835	1.21357	2.7605	81.83	-0.2291	0.0061	0.2352	1109.5235	0.171244	-403.129275	-403.120771	-403.119827	-403.162267	33.17	
C	-0.316041178	 1.4126810625	 0.285612543	-0.316243
N	-0.1041482346	-0.0284963793	 0.3016676958	-0.133356
C	 1.115846603	-0.5490784685	-0.3132700872	-0.30989
C	 0.9470651743	-0.6043129973	 1.162817568	 0.277471
C	 1.7175541333	 0.1878068461	 2.1559799938	-0.155451
C	 1.5573692524	-0.3111738562	 3.3845529985	-0.079798
C	 0.6426586005	-1.5123720781	 3.4048272091	-0.296385
C	 0.5194577477	-1.8927344108	 1.9027347643	 0.085463
O	-0.7455008427	-2.3486652044	 1.503104281	-0.449388
H	 0.6150729512	 1.9975148175	 0.3088307426	 0.105265
H	-0.8627055717	 1.6787202381	-0.6244630368	 0.12818
H	-0.9239041237	 1.7014321176	 1.1483348484	 0.130575
H	 0.9978347901	-1.4515212595	-0.909057715	 0.122174
H	 1.8237033759	 0.1756051566	-0.7150954201	 0.108103
H	 2.3129325208	 1.0556304497	 1.8989756802	 0.099417
H	 2.0146632123	 0.0956499239	 4.2800514136	 0.099026
H	 1.0293220067	-2.3357949037	 4.0143345387	 0.106307
H	-0.3463425187	-1.2573442539	 3.8071818394	 0.116726
H	 1.2583859238	-2.676603633	 1.6831795079	 0.079895
H	-1.1124963026	-1.6206894073	 0.970395855	 0.281908
