17
gdb 56773	2.70708	1.30374	1.10051	1.0988	72.21	-0.2667	0.0171	0.2838	1143.197	0.135882	-417.970199	-417.961579	-417.960635	-418.003911	31.703	
N	-0.1944846698	 1.4148425867	 0.111072931	-0.498407
C	 0.0929745986	-0.011459725	-0.0565462682	-0.264725
C	 0.7923732852	-0.3266032489	-1.3254652153	 0.254845
N	 1.3456222886	-0.5251026896	-2.321254978	-0.324685
C	 0.8950508303	-0.5283625702	 1.1102989893	 0.483952
C	 2.3252308891	-0.1502930091	 1.541907194	-0.310139
C	 2.4618318239	-1.5897251797	 2.1550806163	-0.235291
C	 1.0298103649	-1.8774990807	 1.6851884036	-0.049023
O	 0.1790763834	-0.8891694646	 2.2888276322	-0.28935
H	 0.667352896	 1.9501443488	 0.0520720792	 0.245718
H	-0.7890165388	 1.7401949814	-0.6453957522	 0.24779
H	-0.8603881086	-0.5509378033	-0.0542755178	 0.144791
H	 3.0034546338	 0.0079402332	 0.700322159	 0.126147
H	 2.3863360811	 0.691367365	 2.234620431	 0.118797
H	 3.2133297592	-2.1923782885	 1.6409848607	 0.118106
H	 2.6119388492	-1.6538611718	 3.2346500055	 0.119216
H	 0.5689285838	-2.8178486638	 1.4049587497	 0.112259
