21
gdb 122246	2.65524	0.92178	0.77137	1.3095	86.57	-0.2407	0.0555	0.2962	1581.3885	0.179402	-387.037605	-387.027228	-387.026283	-387.073758	37.59	
C	 0.377887856	 1.4186778164	 0.3025065284	-0.384304
C	-0.0368700682	-0.0019768836	-0.0407067945	-0.022441
O	 0.8188943139	-0.4866855794	-1.0553036957	-0.242177
C	 0.5165366144	-1.8015532169	-1.4595223219	-0.126706
C	 1.4106453596	-2.1784266395	-2.6240239788	 0.145141
C	 2.8404426731	-2.5860261585	-2.3040107867	-0.279368
C	 1.8539300192	-3.6325570491	-2.727281945	-0.305877
C	 1.1675691186	-1.4633870203	-3.8488260427	 0.289591
C	 0.9517847112	-0.875926791	-4.8759894902	-0.471643
H	 1.4122703389	 1.4412959234	 0.657031022	 0.125855
H	 0.3046239986	 2.0611165045	-0.5793587484	 0.130389
H	-0.2677671322	 1.8262084885	 1.0861994902	 0.112853
H	 0.0238697727	-0.6493912635	 0.8514827784	 0.081551
H	-1.0852579792	-0.0278242534	-0.3835011522	 0.086837
H	 0.6785586479	-2.5098410333	-0.6284636999	 0.077627
H	-0.5416930097	-1.8810195915	-1.7581625743	 0.093975
H	 3.6089945407	-2.2892571265	-3.0068575002	 0.129234
H	 3.1352357842	-2.5403400545	-1.2616538495	 0.123322
H	 1.4742072388	-4.3217110773	-1.9804300344	 0.117585
H	 1.9392228383	-4.0479352714	-3.723914279	 0.128875
H	 0.7668947534	-0.3484165531	-5.7783740055	 0.18968
