15
gdb 42192	2.97452	1.43176	1.06763	2.4021	74.84	-0.2487	-0.0648	0.1839	1095.7009	0.110447	-420.554773	-420.546643	-420.545699	-420.588008	30.009	
O	 0.212162476	 0.4227538693	 1.2557642445	-0.311579
C	-0.0036533891	 1.3356183378	 0.480921794	 0.12686
C	 1.013310742	 1.8477669976	-0.4170915685	 0.292017
C	 1.8764384535	 2.2609950949	-1.1465663391	-0.414877
C	-1.3334855207	 1.9787748148	 0.3922541421	 0.362863
C	-2.3674234757	 1.9281449209	 1.4839140646	-0.327537
C	-2.7011380417	 1.3275796863	 0.1503389329	-0.155315
C	-2.8679118316	 2.4314348324	-0.8892469459	-0.099463
O	-1.597023907	 3.0386203703	-0.5228450225	-0.326239
H	 2.639822382	 2.6263694831	-1.7897292761	 0.215095
H	-2.1529362076	 1.2105386372	 2.2676059146	 0.150751
H	-2.8130462888	 2.8686938588	 1.7951108004	 0.125926
H	-2.9198559956	 0.2778410867	 0.0124404678	 0.124985
H	-2.8347309274	 2.0710429351	-1.9224855606	 0.12136
H	-3.7081045281	 3.1225883949	-0.759089218	 0.115153
