19
gdb 112598	3.23481	0.91849	0.83955	1.6934	78.31	-0.255	0.0331	0.288	1421.7922	0.156378	-422.970763	-422.960926	-422.959982	-423.00558	36.596	
O	 0.0205537563	 1.3835563494	-0.2710824013	-0.422255
C	 0.0615524031	-0.0047931225	 0.025158634	-0.095131
C	-1.3620304535	-0.5178028307	 0.0411624093	 0.056718
C	-2.1335115623	-0.5773924382	-1.303564279	-0.265381
C	-2.7155520825	-1.9572872902	-0.8846877077	 0.248452
O	-2.6721298083	-2.9014464321	-1.938888994	-0.462802
C	-1.5812980178	-2.0455917987	 0.1963614396	-0.315039
C	-4.0481562381	-1.8821031943	-0.2936761144	 0.299089
C	-5.1464261136	-1.8623851449	 0.196578421	-0.505794
H	 0.9237367466	 1.7107170179	-0.3138124529	 0.287096
H	 0.6413424573	-0.5582261966	-0.7326038926	 0.081031
H	 0.5363429608	-0.1929014754	 1.0027776088	 0.084859
H	-1.9343138567	 0.0387513103	 0.7889386648	 0.088379
H	-2.8421317042	 0.2170149782	-1.5369141665	 0.114896
H	-1.4577247045	-0.7267662946	-2.1506094231	 0.113349
H	-3.190292536	-3.669342683	-1.6742198326	 0.281355
H	-0.7488758368	-2.6206366317	-0.2206899851	 0.106141
H	-1.846064218	-2.4369997685	 1.1801151204	 0.104341
H	-6.118823802	-1.8307986045	 0.6227188113	 0.200696
