22
gdb 109779	1.90146	1.42485	0.94956	2.5756	83.97	-0.2171	0.0707	0.2878	1333.382	0.192601	-404.29078	-404.2807	-404.279756	-404.32654	37.013	
C	-0.5824196896	 1.2946413683	 0.9246659745	-0.415817
C	-0.0566511316	-0.039911257	 0.4360586163	-0.016606
C	 1.0546860735	-0.1877310752	-0.5586582546	-0.00153
C	 1.7642620564	 0.9895496791	-1.1785486223	-0.098825
O	 3.0543063144	 0.5437207444	-1.5785008594	-0.419363
N	 1.237605569	-0.594704352	 0.8375496539	-0.106575
C	 2.1169118823	 0.1285792456	 1.7109799622	 0.084278
C	 2.3503315542	-0.4752965517	 3.0727900139	-0.281
C	 3.4332762856	-0.5277163932	 2.0217831846	-0.264261
H	 0.1583910325	 2.0953016354	 0.8948224715	 0.11864
H	-1.4330189455	 1.606923055	 0.3094079429	 0.120591
H	-0.937112403	 1.2080591031	 1.9575138502	 0.127807
H	-0.8371494698	-0.8007056803	 0.3973591302	 0.086182
H	 1.0128292548	-1.0329897351	-1.2455950261	 0.091707
H	 1.1778634589	 1.3353739727	-2.0459069481	 0.087636
H	 1.8383870603	 1.8328579327	-0.479680919	 0.082611
H	 3.499759752	 1.2747062186	-2.0171287828	 0.285641
H	 2.1236235525	 1.2170139054	 1.6660556848	 0.06798
H	 2.4739906029	 0.192943667	 3.9179555881	 0.104333
H	 1.8224550506	-1.396774537	 3.2885181637	 0.117776
H	 3.6202979175	-1.4819012626	 1.5442690587	 0.123005
H	 4.3059523722	 0.1047946967	 2.1383370966	 0.105791
