16
gdb 45832	2.65185	1.62369	1.10579	3.1925	82.37	-0.2243	-0.0575	0.1668	1071.151	0.126502	-400.783963	-400.776385	-400.775441	-400.816219	28.965	
O	 0.1342459969	 0.1105217024	-0.770624693	-0.355571
C	 0.0036771449	 1.2239898477	-0.295525313	 0.360482
N	-1.1993211742	 1.8889937945	-0.422272021	-0.33467
C	-1.7143171814	 2.960333449	 0.3295940317	-0.024387
C	-1.2356923869	 4.2079344086	 0.3989676721	-0.096035
C	-0.0787426353	 4.767288326	-0.2836681326	-0.102064
C	 1.1606672532	 4.2573320827	-0.3720840231	-0.104298
C	 1.6839906572	 3.0652884558	 0.287296405	-0.076273
C	 1.157374841	 1.8409536752	 0.4183818661	-0.169758
H	-1.8893449513	 1.280473606	-0.8442966336	 0.250407
H	-2.6463268525	 2.7280339849	 0.8411604858	 0.111746
H	-1.8275815149	 4.9086721353	 0.9837883335	 0.104665
H	-0.2421869946	 5.7517884291	-0.7194943856	 0.104969
H	 1.9113972596	 4.8610940704	-0.8785538743	 0.102223
H	 2.6773213349	 3.2054041312	 0.7151644625	 0.107345
H	 1.7425239433	 1.0799958211	 0.9254122794	 0.121219
