21
gdb 41611	3.82452	1.20743	1.10304	1.5302	81.75	-0.2471	0.0862	0.3332	1179.3778	0.184833	-387.061258	-387.053502	-387.052558	-387.093915	30.723	
C	-0.0703624654	 1.456838254	-0.0770420708	-0.238121
C	 1.4934573977	 1.5219670105	-0.073740928	-0.236121
C	 1.5416775094	-0.0049846645	 0.0579704906	-0.111385
C	 0.0063133439	-0.0698562072	 0.0397989893	-0.114205
C	 0.8123302527	-0.6745622374	-1.0748802003	 0.3428
C	 0.8463000223	-0.2154218011	-2.5392462261	-0.321246
C	 0.7609554898	-1.5465461555	-3.307155556	-0.082697
O	 1.3332139073	-2.5199597337	-2.4450359811	-0.243134
C	 0.8682240279	-2.2091911682	-1.1428843814	-0.155691
H	-0.4989582235	 1.9248299695	 0.8119043981	 0.104372
H	-0.5866180137	 1.8547061748	-0.9568012216	 0.095067
H	 1.9748994159	 1.9461035716	-0.9609674702	 0.096507
H	 1.8817763061	 2.0382358777	 0.8066883714	 0.103979
H	 2.2418409311	-0.559023794	 0.6742295261	 0.081269
H	-0.6583861798	-0.6834522045	 0.6396762443	 0.078551
H	 0.0279429077	 0.460724493	-2.8014027203	 0.103048
H	 1.7878502442	 0.2955762362	-2.7637910998	 0.110073
H	-0.2894872067	-1.7994046028	-3.5291740258	 0.086813
H	 1.3220055679	-1.5564661813	-4.2448186953	 0.107601
H	 1.556463231	-2.6578349169	-0.4204585213	 0.107936
H	-0.1339854857	-2.6422420802	-0.9789225416	 0.084582
