23
gdb 118782	2.96577	0.96466	0.83899	1.7085	83.83	-0.2477	0.0706	0.3183	1492.2576	0.201938	-425.40382	-425.392716	-425.391772	-425.439733	40.622	
C	-0.2001659331	 1.3459673707	-0.0638965469	-0.22247
O	-0.2250392089	-0.0548924386	-0.1764251783	-0.23263
C	 0.8150879377	-0.558164444	-0.9942819575	-0.126825
C	 0.7385949778	-2.0694454883	-0.9928865316	 0.288952
C	 0.9183559714	-2.6755198902	 0.3882471943	-0.451195
C	-0.2498531233	-2.726714979	-1.946577747	-0.38187
C	 1.2366285465	-2.8430200694	-2.1956960132	 0.342299
C	 1.8803220372	-2.1930235918	-3.4027729432	-0.44788
O	 1.8486433132	-4.0676554817	-1.863350311	-0.460699
H	 0.7405713636	 1.7059993398	 0.3833340823	 0.102077
H	-0.3208762591	 1.8391423352	-1.0424331991	 0.099491
H	-1.0318772028	 1.6386192787	 0.5818720628	 0.12571
H	 0.716970416	-0.1455863431	-2.0101009525	 0.077511
H	 1.7934891971	-0.2268893848	-0.6025187241	 0.084243
H	 0.1519168542	-2.2883268408	 1.0646285969	 0.127343
H	 0.8561928878	-3.7631179685	 0.3558155069	 0.124664
H	 1.898451513	-2.4109570971	 0.8029910314	 0.108079
H	-0.7647621698	-3.613817993	-1.5931659217	 0.107818
H	-0.8387731274	-2.0865321567	-2.596071627	 0.105463
H	 1.3997216173	-1.2532407395	-3.6826751863	 0.119131
H	 2.94309064	-2.0030431227	-3.2207904025	 0.125384
H	 1.8059999639	-2.8639349478	-4.2681360362	 0.105764
H	 1.6346029081	-4.6973138376	-2.5605748664	 0.279641
