16
gdb 34535	4.13361	1.24906	1.05784	2.0269	79.91	-0.2346	-0.0273	0.2073	1121.7911	0.124841	-400.70886	-400.701256	-400.700311	-400.740935	29.388	
C	 0.0387092367	-1.1377597288	-0.1213392455	-0.341142
C	-0.033379641	 0.0554146098	 0.0038757241	 0.266286
C	-0.1071154844	 1.4756492941	 0.1717989431	 0.196664
N	-1.0777942052	 2.1465278051	-0.3045259658	-0.301066
C	-1.1203867532	 3.5485094998	-0.0413612835	 0.015297
C	-1.107526711	 4.0334305315	 1.4016328802	-0.298016
C	 0.1000114369	 4.229178455	 0.5306591876	-0.054183
C	 1.3024698384	 3.3295029573	 0.6868089737	-0.107862
O	 0.9436437003	 1.9534398309	 0.903270134	-0.26608
H	 0.0934382011	-2.1918791421	-0.2402151721	 0.201128
H	-1.7509843476	 4.0911031484	-0.7363015618	 0.097087
H	-1.7112904096	 4.9003282042	 1.6453477215	 0.119885
H	-1.0704382433	 3.2723511983	 2.1734314107	 0.134813
H	 0.3334664494	 5.2347509986	 0.1935005247	 0.09677
H	 1.927341273	 3.3869414316	-0.2148884635	 0.116983
H	 1.9191195795	 3.5988949263	 1.5489169225	 0.123436
