19
gdb 117895	4.17566	0.51904	0.47996	1.6841	78.02	-0.261	0.0265	0.2875	2229.3734	0.156052	-460.11098	-460.099719	-460.098774	-460.149343	38.214	
O	-0.0388272003	 1.3970370366	-0.1861242108	-0.42459
C	 0.0332648324	-0.0096688995	-0.0085234299	-0.080529
C	-1.3898417987	-0.5511196711	-0.0645810947	-0.175316
C	-1.4433119342	-2.0776165465	 0.1231255314	-0.076713
O	-0.8419492172	-2.4864574885	 1.3534505122	-0.416784
C	-2.8136488597	-2.5792984057	-0.0066700003	 0.004395
C	-3.954152934	-2.9620124532	-0.0862236611	 0.11305
C	-5.3131398577	-3.4947269719	-0.178309461	-0.193287
O	-5.3863607139	-4.7599391268	-0.8189269533	-0.400547
H	 0.8479567813	 1.756122047	-0.0906304769	 0.286241
H	 0.6392203812	-0.482307558	-0.7998915197	 0.083866
H	 0.4889844404	-0.2764571926	 0.9546875004	 0.101911
H	-1.9932210761	-0.0671480084	 0.7127815139	 0.105767
H	-1.8427180392	-0.289465123	-1.0268154838	 0.119539
H	-0.8211499935	-2.5481964199	-0.6495010196	 0.118861
H	-1.4438127753	-2.2342784958	 2.0629352187	 0.283252
H	-5.7556900106	-3.5281159884	 0.8305302374	 0.118618
H	-5.9407175622	-2.8222915591	-0.7737646825	 0.143258
H	-4.7463130926	-5.3377489449	-0.3902471704	 0.289008
