20
gdb 90482	2.70848	1.46981	1.26314	1.4463	78.46	-0.2252	0.0799	0.3052	1092.3783	0.171244	-403.070784	-403.062475	-403.061531	-403.103624	32.014	
C	-0.2342293721	 1.2951204435	-0.6218393159	-0.420818
C	 0.3194871402	-0.1102537142	-0.456200036	 0.088768
C	 1.6448239286	-0.5529915853	-1.1347196567	-0.280011
C	 2.1045395345	-0.9890882968	 0.2576956964	-0.060555
C	 2.0916574439	 0.0980089836	 1.2532216185	-0.00884
C	 2.4878809243	 1.5328239469	 1.0727432005	 0.032017
C	 3.8891919741	 1.901573081	 0.8187223009	-0.171821
O	 2.9001413622	 2.0272987158	-0.2035247362	-0.222258
N	 0.7981330048	-0.5403542438	 0.9200150012	-0.189597
H	 0.530986481	 2.0683408842	-0.5375575008	 0.146486
H	-0.6933238055	 1.3952164853	-1.6118143968	 0.114397
H	-1.0124396606	 1.4837190548	 0.1259639133	 0.119649
H	-0.4729101266	-0.8239715528	-0.7010024905	 0.086086
H	 1.51166515	-1.3900887408	-1.8223229028	 0.10106
H	 2.246045021	 0.2203866485	-1.6114487246	 0.129471
H	 2.5430265668	-1.9565833926	 0.4853611512	 0.091861
H	 2.3683857587	-0.22943022	 2.2568685872	 0.101264
H	 1.8820913705	 2.2422874996	 1.6391303362	 0.104566
H	 4.282739842	 2.8393695027	 1.2072850512	 0.117761
H	 4.6242034622	 1.1149728503	 0.6559948438	 0.120512
