16
gdb 69798	2.67475	1.9011	1.30404	3.8346	68.22	-0.2331	-0.042	0.1911	963.8813	0.123974	-437.852739	-437.845181	-437.844237	-437.884621	29.09	
C	-0.034705712	 1.5572167288	 0.0224361112	-0.486533
C	 0.1493919407	 0.0694461006	 0.0347585972	 0.26069
O	-0.7368839418	-0.7114477061	 0.8624011569	-0.257984
C	 0.6572599221	-0.7766490085	 1.1358709395	-0.021407
C	 1.3347328517	-2.0200151981	 0.5612678852	-0.084233
N	 0.389533907	-2.9264756789	-0.1045468408	-0.30712
C	 1.185282995	-1.9690631496	-0.9195941032	-0.171772
C	 0.5075050799	-0.6561938762	-1.2653151098	 0.410185
O	 0.4224657663	-0.1761672907	-2.3670562216	-0.311943
H	 0.8767852499	 2.0594851566	-0.315368662	 0.131927
H	-0.8386086836	 1.8312567938	-0.6671426624	 0.148028
H	-0.2904101064	 1.9139075326	 1.0228632345	 0.130794
H	 0.9814500104	-0.3657302759	 2.0883113767	 0.104732
H	 2.2261543024	-2.4088067921	 1.0400854849	 0.100812
H	 0.827403305	-3.8414377335	-0.2034789375	 0.241815
H	 1.9208449432	-2.3473351928	-1.6203710888	 0.112009
