15
gdb 26047	3.44364	1.23676	0.94211	5.7567	71.62	-0.2328	0.0067	0.2395	1176.6383	0.115709	-413.028734	-413.020805	-413.019861	-413.061805	29.098	
N	-0.8938495573	 0.5927454441	 0.1389159198	-0.51656
C	 0.1669465187	-0.3802141842	-0.1596947033	-0.266327
C	 1.093657101	 0.0640565891	-1.2220367135	 0.301897
N	 1.7411252202	 0.4712690247	-2.0877545654	-0.322274
C	 0.9070156411	-0.7203689727	 1.108125457	 0.397055
N	 2.1287036754	-1.1861807483	 1.213168004	-0.303969
C	 2.3184487743	-1.4004387988	 2.5590570358	-0.090225
C	 1.1951321777	-1.0562076329	 3.2652503364	-0.108287
N	 0.2940539966	-0.6228404291	 2.3200708959	-0.274807
H	-0.4793957182	 1.5067434047	 0.302859096	 0.252575
H	-1.505892546	 0.6914873268	-0.6652317764	 0.253468
H	-0.3310849261	-1.2860440955	-0.5326892391	 0.154828
H	 3.252572165	-1.7836378429	 2.9398133855	 0.114634
H	 0.959161577	-1.0687806459	 4.3160891127	 0.133327
H	-0.6401642793	-0.2717863293	 2.4561865647	 0.274666
