21
gdb 83007	2.48891	1.74272	1.55212	1.4592	80.27	-0.2456	0.0673	0.3128	992.8483	0.18536	-387.068684	-387.061104	-387.06016	-387.100289	31.302	
O	-0.3652711748	 1.5599819883	 0.2419945015	-0.410888
C	-0.1405792903	 0.1884269613	 0.0711067277	 0.086397
C	-0.3671813881	-0.7923617452	 1.1910813995	-0.103431
C	-1.1454422255	-0.3052249013	 2.4168222929	-0.251353
C	-2.5982909093	-0.0288821936	 1.9569105076	 0.012403
C	-3.0650224829	 1.4230857075	 1.6337641739	-0.218195
C	-3.2990401018	 1.0204314136	 0.1484839261	-0.224693
C	-2.701111077	-0.393465943	 0.4413342477	-0.012948
C	-1.299800844	-0.7656495604	-0.0234033385	-0.092397
H	 0.3359845881	 1.9043404059	 0.805223524	 0.28776
H	 0.6904162219	-0.0347304345	-0.5995773146	 0.082417
H	 0.3614018985	-1.5844110923	 1.3321744268	 0.078289
H	-1.1201275251	-1.0839742424	 3.1855346406	 0.096481
H	-0.6923609937	 0.5885655213	 2.8639884356	 0.086272
H	-3.3120322362	-0.5592884425	 2.59266329	 0.06296
H	-3.9575109654	 1.7458921233	 2.1761033248	 0.084156
H	-2.2857040775	 2.1743388326	 1.7632488596	 0.096968
H	-4.3549703804	 0.980683017	-0.1319430358	 0.084947
H	-2.7618748425	 1.615538017	-0.5896330989	 0.11323
H	-3.3776188241	-1.2181517108	 0.20071961	 0.061351
H	-1.2180262099	-1.5254172618	-0.7940231807	 0.080273
