14
gdb 70975	4.35241	1.25033	1.13924	4.556	66.06	-0.2489	-0.0109	0.238	1032.7659	0.100073	-436.613722	-436.606509	-436.605565	-436.645179	28.161	
O	-0.1095063958	 1.3597391635	-0.0441538994	-0.448471
C	 0.0573318872	-0.0012677285	-0.049513661	 0.326632
C	 0.9818307485	-0.8444306717	-0.9333208607	-0.332799
C	 0.1099333792	-2.0344977299	-0.4344710937	 0.322307
O	 0.4354996391	-2.1424282413	 0.9830139521	-0.317654
C	-0.2838773098	-0.9179452318	 1.1478178487	 0.016528
C	-1.0652167699	-1.0214235344	-0.1217779076	-0.234226
C	 0.0249244473	-3.2858613919	-1.143183755	 0.191709
N	-0.0550694743	-4.2720480221	-1.7400013211	-0.331493
H	 0.5575734339	 1.753949778	 0.5296337289	 0.29771
H	 0.812626065	-0.6373965224	-1.9916759086	 0.134441
H	 2.0485082005	-0.913819767	-0.7028303207	 0.1172
H	-0.5487295379	-0.5815175952	 2.1407818645	 0.127456
H	-2.1118940931	-0.9861186151	-0.3864830964	 0.130661
