16
gdb 98745	3.88201	0.98903	0.86562	4.7356	68.56	-0.2557	-0.0201	0.2356	1322.8217	0.122561	-475.041853	-475.03272	-475.031776	-475.076805	31.127	
C	 0.2418182649	 1.3812968157	-0.1651499011	-0.245454
O	 0.3424588759	-0.0478422193	-0.0591018093	-0.233942
C	 0.3101871722	-0.7134117803	-1.2234962491	 0.469477
O	 0.220054788	-0.194413744	-2.3086463699	-0.36628
C	 0.3911354431	-2.1914789128	-0.982190857	-0.163832
C	-0.5666527385	-3.0626344664	-1.7731090397	-0.227564
N	 0.8361610263	-3.0520037117	-2.0564161556	-0.064599
C	 1.3947598326	-2.6463024155	-3.2696588216	 0.167186
O	 0.9869969609	-2.9979420739	-4.3444955551	-0.283034
H	 1.0663067804	 1.7782695793	-0.7618211279	 0.148909
H	-0.70303841	 1.6641703661	-0.6350122575	 0.148201
H	 0.290381455	 1.7566400475	 0.8564332331	 0.141073
H	 0.6755937005	-2.4851095855	 0.0229992455	 0.123466
H	-0.9647800318	-3.9574485275	-1.3038877472	 0.136997
H	-1.2159215406	-2.5578191212	-2.4834188215	 0.157107
H	 2.3121676111	-2.0504952203	-3.1195081361	 0.092288
