15
gdb 2151	3.721	3.03359	1.93442	1.0376	57.79	-0.2527	0.0085	0.2612	672.6549	0.126112	-345.658313	-345.651648	-345.650704	-345.688964	25.052	
O	 0.0346454777	 1.3982848668	-0.0008172409	-0.4401
C	 0.0456431464	-0.0167220933	 0.080913826	 0.089443
C	 0.53797128	-0.4151083248	 1.4890700137	-0.261687
C	-0.7117211699	-0.8709965183	 2.2002381178	-0.057306
C	-1.7594169602	-0.972325819	 1.3848174482	-0.118188
C	-1.4202695287	-0.5803420745	-0.0304345091	 0.07783
O	-2.3199007849	 0.3667158541	-0.6019162224	-0.439055
H	-0.5155347147	 1.6138630957	-0.764764565	 0.281276
H	 0.686069397	-0.4368552281	-0.7067322184	 0.06305
H	 1.2808883994	-1.2212369445	 1.4411624146	 0.108829
H	 1.0252502227	 0.4363007197	 1.9761823795	 0.1235
H	-0.7199492218	-1.1126116612	 3.2579037082	 0.098485
H	-2.7557466486	-1.2990082498	 1.6615718085	 0.099706
H	-1.4568860738	-1.4388175305	-0.7111472417	 0.092432
H	-2.4407721306	 1.0571580177	 0.061122191	 0.281785
