21
gdb 106918	3.62836	1.08129	0.97545	3.3827	82.96	-0.2318	-0.0061	0.2257	1295.6442	0.183019	-387.124566	-387.115842	-387.114898	-387.157955	33.734	
C	-0.3465606395	 1.4994691945	-0.0794316209	-0.378528
C	 0.1671034631	 0.0605000823	 0.0622598522	-0.275636
C	 0.831819157	-0.4677955807	-1.191518395	 0.36645
C	 0.0045463877	-1.0702464497	-2.2799738275	-0.330728
C	 0.9398400953	-1.9651497857	-1.4666516342	-0.206113
C	 2.2756861014	-2.2258457966	-2.0770509812	 0.425776
O	 2.8275811231	-3.2954792026	-2.1612244427	-0.334603
C	 2.8681679341	-0.875525303	-2.5148477083	-0.350851
C	 2.145039986	 0.1811070918	-1.655201518	-0.278517
H	 0.4687952136	 2.1969591496	-0.2966449867	 0.120645
H	-1.0774048605	 1.5783331096	-0.8910780815	 0.118967
H	-0.8302979613	 1.8334251104	 0.8433405932	 0.115638
H	 0.8796147369	 0.0061873441	 0.8960065547	 0.100437
H	-0.6683005078	-0.598411808	 0.3288722553	 0.097953
H	-1.0530698522	-1.2147638566	-2.0856454097	 0.120712
H	 0.2394823305	-0.8757928647	-3.3216425132	 0.117164
H	 0.508038658	-2.7224168858	-0.8238981332	 0.100716
H	 3.9520853838	-0.8856582178	-2.3875695536	 0.129397
H	 2.6778754781	-0.7398816773	-3.5861989432	 0.128475
H	 1.9739950052	 1.1196183749	-2.1919513298	 0.105022
H	 2.7501023774	 0.4207497113	-0.7729675467	 0.107623
