17
gdb 78122	2.87692	1.28861	1.07566	3.3537	80.13	-0.2372	-0.0191	0.2181	1165.3978	0.13401	-384.644918	-384.636319	-384.635375	-384.67817	32.43	
C	-0.0003881734	 1.5780232848	-0.0508084929	-0.420699
C	 0.0840810741	 0.0649548721	-0.0724321993	-0.025818
C	 0.6681310759	-0.7749288911	-1.1531823694	-0.060342
C	 1.3395790485	-0.7444781359	 0.2511223156	-0.192409
C	 2.5501601115	-0.1294334003	-0.3714456304	 0.413301
O	 3.6662499572	 0.0749618063	 0.0013249177	-0.304238
C	 1.8881799127	-0.0864289622	-1.8101315902	-0.339646
C	 2.6096913796	-0.8896711914	-2.7732349588	 0.305809
C	 3.2132940766	-1.5697218665	-3.5596007742	-0.420278
H	 0.8906905583	 2.0593615703	-0.4600951976	 0.134781
H	-0.8648917904	 1.9232090781	-0.6279085627	 0.126676
H	-0.119910287	 1.9345919333	 0.9769771155	 0.129671
H	-0.783098393	-0.4104465612	 0.3830419326	 0.104529
H	 0.1558326656	-1.6159182167	-1.6004789239	 0.116352
H	 1.3489864767	-1.4748818354	 1.050798041	 0.113429
H	 1.6985143442	 0.9152219891	-2.2089118481	 0.120651
H	 3.7518688129	-2.1612628131	-4.2578151949	 0.198233
