18
gdb 104935	2.76931	0.86434	0.71515	5.6898	92.88	-0.263	-0.0364	0.2266	1583.7264	0.146695	-364.799178	-364.789712	-364.788767	-364.834066	34.214	
C	 0.1640289141	 1.4454982019	-0.3369702656	-0.381204
C	-0.0241913798	 0.0253764255	 0.2037484465	-0.256024
C	-1.4587803591	-0.4893955175	 0.0813277509	 0.129824
C	-1.9023712659	-1.0950466435	-1.2492029935	-0.284033
C	-1.6870706087	-1.9914498204	-0.06949068	-0.300129
C	-2.4419158339	 0.2385295046	 0.8239423524	 0.083491
C	-3.2563068683	 0.8648974249	 1.4650633117	 0.032796
C	-4.1818680421	 1.5632496055	 2.182646121	 0.190489
N	-4.9710503124	 2.1588526377	 2.7942399336	-0.342764
H	 1.2046692224	 1.7649010522	-0.2302816564	 0.120486
H	-0.1005884405	 1.5032254481	-1.3977273003	 0.120175
H	-0.4641524663	 2.1596344917	 0.2038407465	 0.135375
H	 0.6270192424	-0.6704561681	-0.3381115222	 0.102516
H	 0.2797800437	-0.0183868512	 1.2560441375	 0.11566
H	-2.9184187689	-0.9094862087	-1.5755696045	 0.137159
H	-1.1623057785	-1.0934820795	-2.0421367882	 0.129436
H	-0.7998400974	-2.614327013	-0.0429686317	 0.129445
H	-2.5564086408	-2.4176607701	 0.4164369624	 0.137302
