20
gdb 12414	2.91803	1.96811	1.45419	1.7597	70.38	-0.2475	0.0767	0.3242	938.7038	0.17873	-386.153341	-386.145487	-386.144543	-386.184978	30.894	
C	-0.0304576937	 1.5749686762	 0.0126101986	-0.405653
C	 0.0314736598	 0.0467748659	 0.0079867851	 0.021635
C	 0.731022981	-0.5069204883	-1.2471468243	-0.214862
C	 0.8937683144	-2.0262889733	-1.1625797224	-0.082919
O	 1.547593791	-2.4216357437	 0.0398293382	-0.258314
C	 0.804953279	-2.0321937981	 1.1887559272	-0.118534
C	 0.7410884835	-0.5056618666	 1.2648120848	 0.134623
O	 2.0572291296	 0.0183663867	 1.4044770889	-0.445386
H	 0.9769249227	 1.9958540464	 0.0751406638	 0.13273
H	-0.509765133	 1.9546732903	-0.8958688312	 0.104876
H	-0.5999023299	 1.9440122163	 0.8726567203	 0.108489
H	-0.9952326665	-0.3489893044	 0.0272550492	 0.065023
H	 0.1669660096	-0.2451880082	-2.1499356276	 0.095927
H	 1.7204209095	-0.0430876885	-1.3455471303	 0.103787
H	-0.0928286096	-2.5169028762	-1.220115712	 0.088379
H	 1.5081897032	-2.4099596411	-1.9821404739	 0.108512
H	-0.2078140206	-2.4664446268	 1.1614272891	 0.088041
H	 1.3388630769	-2.4378514323	 2.0527680472	 0.112853
H	 0.1906092164	-0.2011116077	 2.1634793642	 0.074791
H	 2.6251235667	-0.5383957167	 0.857315405	 0.286001
