13
gdb 33637	3.21919	1.56157	1.37483	3.7296	69.3	-0.2477	-0.0885	0.1593	923.2934	0.088494	-415.473541	-415.466793	-415.465849	-415.504701	26.003	
N	-0.1680885674	-1.2445842486	 0.0155116543	-0.347909
C	-0.1370161767	-0.0876814498	 0.031083096	 0.170867
C	-0.0963534479	 1.3269340357	 0.0592992911	 0.116238
C	-0.9075577587	 2.3826929812	 0.7504417564	-0.151732
C	 0.0667112092	 3.001085009	 1.7862763069	-0.176735
N	 1.3552801066	 3.1129015272	 1.0101272804	-0.210734
C	 1.1122012473	 2.3693897468	 0.0241395002	 0.244121
O	 0.7735891607	 2.8721091269	-1.2367651343	-0.245895
C	-0.5775417865	 2.3966973359	-0.8210178411	 0.027857
H	-1.9543262935	 2.2130665165	 0.9901050268	 0.127016
H	-0.1847730844	 4.0290195788	 2.0604921236	 0.151678
H	 0.1172844833	 2.3938860311	 2.7002027921	 0.136877
H	-1.327706982	 2.4102845592	-1.6016220823	 0.15835
