19
gdb 120614	3.54114	0.8167	0.74105	2.9761	74.78	-0.2495	-0.0287	0.2207	1567.628	0.155532	-460.140554	-460.13038	-460.129435	-460.176413	35.703	
C	-0.1677495814	 1.2264479478	-0.0405302263	-0.224857
O	-0.2161594027	-0.1640349329	-0.2517239353	-0.232834
C	 0.8852861271	-0.6367747219	-1.0010415251	-0.079068
C	 0.7661997266	-2.1336303408	-1.1139914107	-0.041377
C	-0.1555875371	-2.747526527	-2.1205293211	-0.32537
C	 1.3474811294	-2.8427535338	-2.3308738215	 0.240275
O	 1.9719320819	-2.0541532906	-3.3024099596	-0.460634
C	 1.9992424549	-4.1610660007	-2.0832007453	 0.109707
O	 1.6078099278	-4.9797987302	-1.2871993626	-0.266621
H	 0.7327712951	 1.5255438217	 0.5195446528	 0.104229
H	-0.1792246571	 1.7861022004	-0.9897984945	 0.101927
H	-1.0515709886	 1.4998365921	 0.5408739637	 0.127833
H	 0.9071502018	-0.1782045766	-2.000866173	 0.097328
H	 1.8312758555	-0.3682266605	-0.5012352314	 0.092405
H	 0.885236803	-2.6840654296	-0.1859941159	 0.120375
H	-0.6684213424	-3.6661269972	-1.8595987998	 0.139963
H	-0.6843844163	-2.0750763082	-2.7880043438	 0.122427
H	 1.61932161	-2.296199708	-4.1650722443	 0.29275
H	 2.9046032424	-4.3263852239	-2.7092362065	 0.081543
