20
gdb 14126	3.67294	1.58664	1.34264	1.2408	74.72	-0.2451	0.0746	0.3197	1001.1591	0.176808	-348.977497	-348.969193	-348.968249	-349.009954	32.015	
C	 0.0466536687	 1.5437745513	-0.1161929426	-0.408581
C	-0.0740968991	 0.0238369374	 0.0194283757	 0.001935
O	 0.3383650668	-0.6405568494	-1.1722046569	-0.426232
C	 0.6575060195	-0.4967599701	 1.2355414847	 0.399405
C	 2.0950523989	-0.9418170149	 1.2152314668	-0.335233
C	 1.0299610607	-1.9297949615	 1.6171217552	-0.102076
C	 0.6095657167	-1.6813535055	 3.0695659421	-0.220364
C	 0.2313600093	-0.2121133809	 2.6863892425	-0.300058
H	 1.0982243399	 1.8378357945	-0.2227174293	 0.109449
H	-0.5040998629	 1.892729762	-0.9942354196	 0.12068
H	-0.3501991063	 2.0521728479	 0.7682945263	 0.122169
H	-1.1366556928	-0.235420534	 0.1218163916	 0.084385
H	 1.1896352631	-0.2704429184	-1.4294037737	 0.278526
H	 2.5163846637	-1.1167965356	 0.2307340006	 0.098605
H	 2.8069322708	-0.5653926267	 1.9478243424	 0.097669
H	 0.8701157659	-2.8396675867	 1.0514912652	 0.090739
H	-0.261723272	-2.2647583945	 3.3752990534	 0.102481
H	 1.3939776509	-1.808132908	 3.8234115918	 0.09393
H	 0.7678789172	 0.5928678109	 3.1997992739	 0.092016
H	-0.842358609	-0.0268765478	 2.7813919999	 0.100555
