20
gdb 106324	2.98239	1.18325	1.03157	1.7861	75.7	-0.2334	0.0631	0.2964	1226.5308	0.169524	-440.224335	-440.214753	-440.213809	-440.258893	35.525	
C	-0.1875997044	 1.5240196069	 0.1838140694	-0.317215
N	 0.093338852	 0.090827178	 0.203983593	-0.128095
C	 1.3284652111	-0.4962939326	-0.2652339771	-0.13098
C	 2.5940978644	 0.2764893612	 0.1249684197	 0.116334
O	 2.7941189014	 1.4835890063	-0.5788163548	-0.428757
C	 2.119292044	 0.300542355	 1.6188078723	-0.353209
C	 0.9156873325	-0.5650153029	 1.1974316346	 0.309941
C	 0.3239844861	-1.7011304911	 1.9784253475	-0.162453
O	-0.4939023329	-1.2449690093	 3.0490954389	-0.416857
H	 0.6716061883	 2.1694088613	 0.3870225475	 0.127727
H	-0.5704901535	 1.7807397455	-0.8084190068	 0.126078
H	-0.9760053174	 1.7330916734	 0.9146273101	 0.1084
H	 1.2769785888	-1.2495672052	-1.0452407118	 0.090004
H	 3.4674827115	-0.3828963897	 0.0242151232	 0.078761
H	 3.6225057016	 1.8728179182	-0.2803719353	 0.28546
H	 2.8087814244	-0.2137557074	 2.2921369087	 0.10471
H	 1.8819447589	 1.2821679781	 2.0357732182	 0.104505
H	-0.2370970686	-2.3520823624	 1.2924432227	 0.095496
H	 1.1163244102	-2.29801544	 2.4431408036	 0.103757
H	-1.2211102685	-0.7548800232	 2.6503487863	 0.286391
