21
gdb 120650	4.79245	0.66524	0.639	2.6417	76.25	-0.2407	0.0626	0.3033	1775.0742	0.179989	-461.332663	-461.321997	-461.321053	-461.368729	38.537	
O	-0.0929420034	 1.4151558951	 0.1375686156	-0.421343
C	-0.0781711001	 0.0053025911	 0.3077366876	-0.064489
C	-1.3504303626	-0.554268174	-0.3186968774	-0.199004
C	-1.4197912336	-2.0637173323	-0.2291088307	-0.079163
C	-1.8882063974	-2.7487898818	 1.047512763	-0.347215
C	-2.7402965259	-2.7725155695	-0.2012040244	 0.423002
O	-3.881341415	-1.962843009	-0.2368320531	-0.47418
C	-2.9275806407	-4.0602712133	-0.9609264348	-0.1469
O	-4.0467080802	-4.7233656378	-0.3707299496	-0.4323
H	 0.6982478431	 1.7754021034	 0.5480935138	 0.283569
H	 0.8055553663	-0.4441730276	-0.1759181719	 0.077069
H	-0.0386795417	-0.2701456524	 1.3736593687	 0.086657
H	-2.2200309371	-0.1107680999	 0.173457625	 0.124108
H	-1.3896904697	-0.2361167292	-1.3675325263	 0.104839
H	-0.6304783271	-2.5825801579	-0.7708499099	 0.078579
H	-1.3944524269	-3.6580473086	 1.3733893956	 0.107052
H	-2.2408453358	-2.1056824282	 1.8467731195	 0.115516
H	-4.6107609658	-2.539555376	 0.0236766648	 0.287797
H	-3.1247952892	-3.8330548034	-2.0187361865	 0.09702
H	-2.0197089938	-4.6784822062	-0.9024214718	 0.087181
H	-4.3872371833	-5.3655537124	-0.9993926573	 0.292204
