23
gdb 119733	3.2468	1.03617	0.91549	1.0069	86.29	-0.2501	0.0798	0.3299	1405.4661	0.205587	-388.255164	-388.245709	-388.244765	-388.290563	34.962	
C	-0.1876653979	 1.376266834	 0.079612832	-0.217785
O	-0.0281092385	-0.0192692069	 0.0158479952	-0.239225
C	 0.6083595044	-0.5570559588	 1.1586474075	-0.174344
C	 0.7255176276	-2.0482408991	 0.9827810354	 0.394798
C	-0.5808509942	-2.8863739048	 1.0687748454	-0.275342
C	 0.0720326045	-3.809067054	 2.1428185737	-0.218769
C	 1.3870252603	-2.9890359572	 2.0620495537	-0.086527
C	 2.40285913	-3.4840065595	 0.9989109138	-0.21861
C	 1.7399081235	-2.5680720585	-0.0747595015	-0.275413
H	 0.7806176178	 1.8968065091	 0.1579602263	 0.100582
H	-0.684447555	 1.6936028557	-0.8407984787	 0.124973
H	-0.8064590197	 1.6796342428	 0.9396888334	 0.100589
H	 1.6080124559	-0.1038047475	 1.2886888374	 0.076876
H	 0.0263214732	-0.3199486504	 2.0678501669	 0.076865
H	-1.4342540037	-2.315051466	 1.4436337206	 0.099477
H	-0.8839922571	-3.3696581556	 0.1362155124	 0.09643
H	-0.4195234422	-3.7535095511	 3.1174378318	 0.097669
H	 0.1695767009	-4.8656730476	 1.8756529968	 0.093971
H	 1.7971259008	-2.6184861378	 3.0039183627	 0.056182
H	 3.437154082	-3.209518551	 1.2215122565	 0.09761
H	 2.3762956135	-4.5594730932	 0.7989779645	 0.093898
H	 1.2934979605	-3.0764624502	-0.93345882	 0.096434
H	 2.4038006733	-1.7871630824	-0.4549574857	 0.09966
