17
gdb 26446	3.59373	1.06588	0.94019	4.8282	74.67	-0.2228	-0.0116	0.2112	1255.395	0.136404	-418.059595	-418.051035	-418.050091	-418.093923	30.829	
C	 0.106767437	 1.4774828917	 0.5407108992	-0.401491
C	-0.0859954331	 0.0785818894	-0.0422842814	-0.175312
C	 0.839219754	-0.9458224533	 0.6151733569	 0.148942
O	 1.6719958034	-0.6801882449	 1.443251926	-0.246351
C	-1.496569609	-0.4394946693	 0.0329290126	 0.263221
C	-2.5411907305	-0.0047066966	 0.8104258012	-0.182647
N	-3.5907041224	-0.8482877671	 0.5174891857	-0.233616
C	-3.1443173455	-1.7456326288	-0.4034716885	 0.01122
N	-1.8884308853	-1.5301244171	-0.7177013477	-0.30618
H	 1.1503312356	 1.7863563947	 0.4528569483	 0.131044
H	-0.5232225924	 2.2041956208	 0.0210161142	 0.113549
H	-0.1429555227	 1.4954825268	 1.6058004636	 0.12529
H	 0.194658887	 0.0701895925	-1.1067933361	 0.113753
H	 0.6749269865	-1.9869277638	 0.2641195183	 0.098638
H	-2.6403289294	 0.8027296792	 1.5153806664	 0.135994
H	-4.5177811748	-0.7983020354	 0.9051760258	 0.269702
H	-3.7761439384	-2.5225589191	-0.8072727244	 0.134244
