21
gdb 72223	3.08541	1.62628	1.31783	1.178	80.47	-0.2409	0.0763	0.3171	1030.9843	0.184765	-387.081212	-387.073601	-387.072657	-387.11299	31.378	
O	-0.0090786988	 1.4333836078	 0.1354291013	-0.487742
C	 0.0102592418	 0.04365588	-0.0384213363	 0.430655
C	 0.3221879399	-0.5192971556	-1.4432629351	-0.307716
C	-0.8541788041	-1.537231425	-1.2860586939	-0.004519
C	-0.4480049979	-2.9733050356	-0.8668931578	-0.227789
C	-0.7112723202	-3.0816872696	 0.6578534298	-0.211501
C	-0.7786732334	-1.6411790414	 1.1709285182	 0.001131
C	 0.5514373544	-0.8137508752	 1.1447423207	-0.314803
C	-1.3181618351	-0.774464415	 0.0018062977	-0.097543
H	 0.90140267	 1.7501036359	 0.1250864963	 0.27328
H	 0.0995490838	 0.2381716425	-2.1999078125	 0.100677
H	 1.321475234	-0.9301624909	-1.6275831459	 0.080927
H	-1.5525129299	-1.5323638623	-2.1237397179	 0.069263
H	-1.0145825738	-3.7291353758	-1.4183149782	 0.096078
H	 0.6073862321	-3.1524003069	-1.098484307	 0.096464
H	-1.6769881353	-3.569726672	 0.8367106367	 0.095046
H	 0.0466939651	-3.6797392882	 1.1751650546	 0.09339
H	-1.3108755872	-1.5575961969	 2.1205064153	 0.066034
H	 1.475884786	-1.3737485948	 0.9676031554	 0.084527
H	 0.6742176293	-0.2002050239	 2.0404239468	 0.101829
H	-2.3083519106	-0.3231226269	 0.0359956119	 0.062312
