18
gdb 124742	2.51336	1.45728	0.95893	4.3371	73.82	-0.2415	0.0036	0.2451	1207.7119	0.147775	-435.274145	-435.265071	-435.264127	-435.308495	33.046	
C	 0.216716385	 1.2204952752	 0.6216278357	-0.410789
C	-0.2135067626	-0.1028258292	-0.0085339904	 0.002618
O	-1.5766048293	-0.063306653	-0.4392101685	-0.4296
C	 0.6697039035	-0.5414282009	-1.1494571487	 0.247636
C	 2.0214270318	-0.5021075362	-1.4428023035	 0.203612
C	 3.1843852174	 0.0582348157	-0.6868047691	-0.504149
N	 2.2100264964	-1.1228741974	-2.6468751494	-0.246281
N	 1.06691892	-1.5407005779	-3.1127110225	-0.126737
N	 0.13782111	-1.1968670859	-2.2103968249	-0.215707
H	 1.2198187228	 1.1493789106	 1.0492513106	 0.136565
H	 0.2274988537	 2.0214414553	-0.1265810506	 0.120586
H	-0.4827889289	 1.489611716	 1.4171732415	 0.132252
H	-0.2050382951	-0.8808495321	 0.7659747799	 0.119269
H	-1.6918421268	 0.7379677217	-0.9638254483	 0.285162
H	 3.23641355	-0.3276616885	 0.3369572886	 0.126121
H	 4.1046084789	-0.2239830098	-1.2026893633	 0.149843
H	 3.1545482618	 1.151469229	-0.6265595146	 0.129796
H	-0.8363051186	-1.4165277825	-2.350357912	 0.279802
