19
gdb 103508	3.14506	1.36494	1.23601	2.3813	75.07	-0.2492	-0.0095	0.2397	1080.1396	0.160089	-419.187013	-419.178731	-419.177786	-419.219484	32.239	
C	-0.1317936751	 1.605114408	 0.009341169	-0.419099
C	-0.0156030341	 0.079168366	 0.0540729949	 0.241041
C	-1.4147572901	-0.5729709119	-0.0193292793	-0.07129
O	-2.0742319768	-0.2644533414	-1.2268187255	-0.425464
N	 0.7413626123	-0.4181097609	-1.127312688	-0.244869
C	 1.6695682064	-1.175497668	-0.7014272824	 0.022367
N	 1.7933253003	-1.4076380873	 0.7006769642	-0.124655
C	 2.2023104945	-0.1562112552	 1.4008250706	-0.259287
C	 0.7662278942	-0.4843271328	 1.2478648262	-0.0701
H	 0.8499626804	 2.0766756478	-0.0790424441	 0.112715
H	-0.7420161226	 1.9038912131	-0.8451729899	 0.140737
H	-0.6120252241	 1.974885828	 0.9212234536	 0.115397
H	-1.3035945258	-1.6612420302	 0.1154811007	 0.091082
H	-2.0439442134	-0.1966144609	 0.795635487	 0.104342
H	-1.4392074137	-0.4536140456	-1.9299396464	 0.293386
H	 2.3695977088	-1.6845769787	-1.3586026378	 0.129462
H	 2.6923442698	-0.3187816989	 2.3554536185	 0.130177
H	 2.6280345883	 0.6344077388	 0.7898435864	 0.131155
H	 0.2146401407	-0.8523827197	 2.1081716923	 0.102904
