16
gdb 17308	2.87335	2.4368	1.76023	3.0506	63.55	-0.232	0.0503	0.2823	796.3941	0.129504	-383.655056	-383.64807	-383.647125	-383.685721	27.813	
C	-0.0112567708	 1.5265446272	-0.0029525953	-0.493937
C	-0.0134603979	 0.0254246424	 0.0160506701	 0.215742
C	-0.8974903055	-0.8354536389	 0.8818983327	 0.106806
O	-1.804164057	-1.8115103202	 0.5013965824	-0.429138
C	 0.5994337494	-0.9672639982	 1.0570014047	-0.225161
C	 1.2943592152	-1.6994825051	-0.1182219367	 0.03273
O	 0.3045046783	-2.1804945583	-1.0595141593	-0.272159
C	 0.7104303046	-0.7944122053	-1.0976256006	-0.030231
H	 0.9913672639	 1.9306890756	-0.1892280652	 0.118262
H	-0.6754911766	 1.9123430587	-0.786319961	 0.127646
H	-0.3580442008	 1.9297244854	 0.9535804125	 0.125831
H	-1.3288528546	-0.2482976432	 1.69177171	 0.106281
H	-1.3694005359	-2.3081812876	-0.2051042638	 0.29474
H	 1.1119009308	-0.7410516192	 1.984683676	 0.092077
H	 2.2416474994	-2.223430786	-0.0959601333	 0.117797
H	 1.0761953977	-0.4133590673	-2.0439280429	 0.112715
