17
gdb 87843	2.96027	1.41174	1.18954	2.8387	68.64	-0.2353	0.0585	0.2937	1065.5959	0.133462	-458.880031	-458.871648	-458.870704	-458.912654	32.52	
O	-0.0213238243	 1.3225364844	-0.0833979171	-0.438426
C	 0.0473755152	-0.0681340907	-0.0016996021	 0.044415
C	-0.4471443533	-0.7716746694	 1.2598075421	-0.39452
C	-1.2414198139	-0.8178803874	-0.003994841	 0.357126
O	-2.4656191141	-0.0643615096	-0.1335464045	-0.331055
C	-3.0704329993	-1.1696790157	-0.827590862	 0.046182
C	-2.3381848858	-1.4735856221	-2.1102255317	-0.370863
C	-1.804189026	-1.9846145662	-0.7871112627	 0.22696
O	-1.6016191365	-3.3096888657	-0.4755112606	-0.446504
H	-0.9272275789	 1.5415361845	-0.3384986987	 0.297316
H	 0.9121231143	-0.4841529325	-0.5144406277	 0.095782
H	 0.0485181032	-1.6844935603	 1.5747868178	 0.123331
H	-0.8279246027	-0.1400304236	 2.0554936524	 0.131376
H	-4.1100709895	-1.3873956844	-0.6209333459	 0.122514
H	-2.8136411562	-2.2408037224	-2.7150681155	 0.120877
H	-1.8356067021	-0.6821413601	-2.6596755715	 0.121292
H	-0.9874594899	-3.6838198387	-1.1165559113	 0.294196
