21
gdb 85435	2.46328	1.41589	1.11227	2.8364	81.93	-0.2341	-0.0132	0.221	1181.6726	0.182244	-387.118192	-387.109491	-387.108547	-387.151502	34.08	
C	 0.2704900984	 1.7460171113	-0.0562188794	-0.39355
C	 0.0386374923	 0.2351689965	 0.0879337097	-0.081112
C	 0.6432755493	-0.5528961555	-1.0913987161	-0.32622
C	 2.0820685852	-0.8736124072	-0.6682627549	 0.406824
O	 2.9665336416	-1.2450051813	-1.3944865566	-0.313357
C	 2.201056588	-0.6382304793	 0.8449942329	-0.413662
C	 0.7745092783	-0.3653738214	 1.2971549062	 0.394169
C	 0.4263220741	 0.0080788888	 2.7081700929	-0.330932
C	 0.0657497534	-1.3627856374	 2.1820888846	-0.324276
H	 1.3336414199	 1.9832248335	-0.177838608	 0.118448
H	-0.2546117754	 2.1375842111	-0.9335210636	 0.116265
H	-0.0901353084	 2.2872034499	 0.8236306592	 0.117617
H	-1.0378805378	 0.0547371436	 0.174259026	 0.071926
H	 0.1295097058	-1.5140716114	-1.223848835	 0.129298
H	 0.6210624056	-0.0377752203	-2.0550112777	 0.12192
H	 2.6807572912	-1.490940543	 1.3331164842	 0.126996
H	 2.8606892071	 0.2265075215	 0.9977904407	 0.131243
H	 1.2292555446	 0.0831791709	 3.4342883483	 0.11324
H	-0.3796224588	 0.7177515859	 2.8671501895	 0.111166
H	-0.9812084865	-1.5721465003	 1.9864537143	 0.111505
H	 0.6290117224	-2.2150108859	 2.5487768729	 0.112492
