15
gdb 69191	2.00391	1.79279	1.14821	3.2781	72.82	-0.2399	-0.036	0.2039	1077.4678	0.109134	-420.567582	-420.559087	-420.558143	-420.600763	31.428	
C	-0.0863292249	 1.5066350365	 0.0353993476	-0.505426
C	 0.1333477134	 0.0307058219	 0.0156142238	 0.422554
O	-0.7205660752	-0.8180598226	 0.7678214924	-0.261906
C	 0.6984052145	-0.8921403671	 1.039957471	-0.196206
C	 1.2535415655	-1.7880837527	-0.0539285783	 0.436446
O	 1.9808755233	-2.7289401146	-0.0921109741	-0.286319
C	 0.6515504653	-0.8333544166	-1.1677064018	-0.400954
C	-0.3025903248	-1.336498258	-2.1260589232	 0.335433
C	-1.0993823642	-1.7595932469	-2.9202993118	-0.437204
H	 0.8071958831	 2.0366538855	-0.3078739062	 0.135124
H	-0.915656539	 1.7744329174	-0.6275466228	 0.15076
H	-0.3327464845	 1.8406627528	 1.0462387094	 0.14418
H	 1.0254723609	-0.728602086	 2.0597920556	 0.130057
H	 1.5076693787	-0.358481169	-1.6653095967	 0.131539
H	-1.805315212	-2.1415397905	-3.6155989949	 0.201922
