17
gdb 73060	3.50165	1.13656	1.01106	4.8876	69.65	-0.253	0.01	0.263	1202.0337	0.134156	-458.934483	-458.925941	-458.924997	-458.968	30.906	
C	-0.2736064119	 1.5788191896	 0.244240352	-0.50342
C	 0.0278214851	 0.1298051478	-0.0001693986	 0.210869
C	-1.0098332748	-0.9831889744	-0.1672216789	-0.126406
O	-0.166562316	-1.9446204573	 0.5296477887	-0.283604
C	 0.8071697661	-0.9382003462	 0.769672071	-0.002001
C	 1.3365502561	-0.3952915569	-0.5274975435	 0.030964
O	 1.3692052087	-1.1546075337	-1.7126441466	-0.195365
C	 1.8925607909	-2.4048903474	-1.635700303	 0.182786
O	 1.9621123925	-3.119186309	-2.587897146	-0.275121
H	 0.6248145647	 2.1249311652	 0.5475427846	 0.127835
H	-0.659492128	 2.0574108511	-0.6632907403	 0.136207
H	-1.0224331777	 1.7008718791	 1.0339296213	 0.129009
H	-1.9273436276	-0.8046537222	 0.4025666523	 0.116429
H	-1.2461310989	-1.3001608769	-1.1873757451	 0.13071
H	 1.3391367692	-0.9534911286	 1.715064452	 0.114433
H	 2.1683718204	 0.3001282742	-0.4403151678	 0.113407
H	 2.2410690509	-2.6595482044	-0.6205967019	 0.09327
