19
gdb 61020	4.18571	0.99058	0.91835	2.3532	77.05	-0.2432	0.0242	0.2673	1296.9936	0.160085	-419.175133	-419.166633	-419.165689	-419.208667	31.614	
C	-0.3024170208	-0.7297955353	 1.3343358911	-0.353508
N	-0.013696241	 0.0096149168	 0.1149634152	-0.053695
C	 0.3716019007	 1.3202099479	 0.2193050837	 0.150663
O	 0.5057542327	 1.9384789224	 1.2527178869	-0.340458
C	-0.1197457403	-0.6149174175	-1.1827889938	 0.039019
C	 0.7209060729	-1.8602551519	-1.602457568	-0.212381
N	-0.4917926944	-2.5176426741	-2.2099207081	-0.115416
C	-1.3753641409	-2.801115391	-1.0738343644	-0.238305
C	-1.3535840457	-1.4165695707	-1.5939657843	-0.066875
H	-1.3473530897	-1.0536804496	 1.3621929601	 0.133066
H	 0.3409806895	-1.6117724647	 1.4250523416	 0.124341
H	-0.1092231057	-0.0592742028	 2.1716295743	 0.170602
H	 0.5540497117	 1.7721924974	-0.7751916937	 0.075494
H	 0.0467119339	 0.1746871005	-1.9196093184	 0.108322
H	 1.478320536	-1.6492847671	-2.3587622256	 0.120335
H	 1.17290481	-2.4460099489	-0.796109522	 0.112448
H	-2.2382779538	-3.4022153518	-1.3442853691	 0.128065
H	-0.9341269199	-3.0541324502	-0.1135819751	 0.114546
H	-2.2032699649	-0.9981637792	-2.1247162103	 0.103737
