13
gdb 24865	2.39752	1.78512	1.02325	1.9814	70.52	-0.2648	-0.1144	0.1504	1052.3647	0.091192	-452.802788	-452.795557	-452.794613	-452.835765	26.164	
O	 0.01231205	-0.0807224276	 0.0023037	-0.343575
C	 0.0323441127	 1.1339708013	 0.0087044155	 0.4011
N	-1.1849617983	 1.8213431303	 0.0285880519	-0.417513
C	-1.571382576	 3.1501961203	 0.0413056245	 0.389065
O	-2.7505982231	 3.4413937671	 0.0586088079	-0.330955
C	-0.5657742076	 4.264484705	 0.0338220568	-0.018709
N	 0.708452647	 4.2944294835	 0.0169086728	-0.241206
C	 1.5551193586	 3.1919262404	-0.0004051459	-0.006122
C	 1.3034658461	 1.8709721501	-0.0041954512	-0.135979
H	-1.9776175522	 1.1870174965	 0.0356602568	 0.272792
H	-1.0901544356	 5.221247162	 0.0460945023	 0.155942
H	 2.6005151669	 3.4903548546	-0.0127621833	 0.135156
H	 2.1508041014	 1.1936795066	-0.0191699979	 0.140005
