15
gdb 19776	3.10552	2.72782	1.78793	4.1487	63.92	-0.2484	-0.0133	0.2351	744.1494	0.120927	-362.646329	-362.640304	-362.63936	-362.676303	24.132	
O	-0.0280707867	 0.0026556953	 0.0946540026	-0.314398
C	-0.0496658957	 1.2008220196	 0.0338189493	 0.374657
C	-1.2782160549	 2.083083496	-0.0365416284	-0.135734
C	-1.551812621	 2.9081647381	 1.2085008433	-0.301827
C	-0.7865545768	 3.5101870583	 0.0677647402	-0.049494
C	 0.7315077765	 3.4218916902	 0.0573257131	-0.029642
C	 1.5045134635	 2.7921527176	 1.1608305593	-0.263217
N	 1.1386348311	 2.0144455078	-0.0458451801	-0.124889
H	-2.1114349085	 1.7521891826	-0.6437170142	 0.115316
H	-2.5781668954	 3.2343383549	 1.3362912837	 0.128955
H	-1.0558542204	 2.6632370899	 2.1400442404	 0.128541
H	-1.2371709399	 4.311293442	-0.5042394918	 0.10159
H	 1.2458670122	 4.1047480734	-0.6129901321	 0.104595
H	 2.5678069138	 2.9928761652	 1.2590513076	 0.132577
H	 1.0098584422	 2.549904989	 2.095327677	 0.132969
