18
gdb 91790	2.61825	1.67839	1.174	3.384	73.1	-0.2409	0.0221	0.263	1066.8902	0.148074	-439.115722	-439.107246	-439.106302	-439.148501	32.01	
C	-0.0153943218	 1.3878974411	-0.1044922072	-0.345322
N	-0.0207986989	-0.05571532	-0.0839327293	-0.084635
C	-1.2534693249	-0.8359139119	-0.0289450977	-0.187306
C	-0.7823256531	-2.2866343091	-0.0224736754	-0.135442
C	 0.0510400972	-2.7193993059	-1.2114925829	-0.342563
C	 0.7210349092	-2.2545448988	 0.0590741166	 0.344453
O	 1.5092531523	-3.0938445789	 0.8225942387	-0.471832
C	 1.1070683899	-0.8016400033	 0.0968590791	 0.35086
O	 2.2405370695	-0.3994710985	 0.2943705824	-0.422815
H	 1.0241665854	 1.7172193616	-0.057972158	 0.165986
H	-0.4788287872	 1.7740695423	-1.0199961087	 0.126353
H	-0.5584472973	 1.7988043165	 0.7564594339	 0.125376
H	-1.8203179478	-0.590689833	 0.8807205836	 0.112975
H	-1.895038546	-0.608962573	-0.8910670129	 0.113373
H	-1.3689398998	-3.0257923159	 0.507388815	 0.109631
H	 0.1068704698	-3.7885669797	-1.3852231993	 0.12813
H	 0.0781876147	-2.1012406324	-2.10451209	 0.116011
H	 2.3493771788	-2.620914761	 0.922684322	 0.296769
