18
gdb 31059	2.52191	1.31831	0.91277	1.5176	76.73	-0.1862	0.0465	0.2327	1294.1582	0.148174	-435.301214	-435.291813	-435.290868	-435.335607	34.039	
C	 0.1421015105	 1.150718974	-0.3261391787	-0.317481
N	-0.4058336809	-0.0839133722	 0.2527455209	-0.407513
C	 0.4370486543	-0.7122717672	 1.1971317951	 0.107309
C	 0.9543221229	-1.9665870328	 1.0355514044	 0.350888
O	 0.8205698554	-2.8782433885	 0.0505674838	-0.439993
N	 1.7192421244	-2.2186070969	 2.1435755711	-0.350077
C	 1.6381214712	-1.0966860806	 2.9484382907	 0.32523
C	 2.3444126866	-0.9956907866	 4.2577848361	-0.498339
N	 0.8766332858	-0.1820275288	 2.4004001081	-0.329094
H	 1.0527895827	 0.9113923719	-0.8837679269	 0.120082
H	-0.5853375434	 1.5743674653	-1.0257140285	 0.108669
H	 0.3942176743	 1.9096962795	 0.4273238859	 0.123592
H	-1.3097887309	 0.1199481585	 0.6686799262	 0.227921
H	 0.2231379685	-2.4662286036	-0.590372396	 0.305047
H	 2.2275148676	-3.0680029345	 2.3239361844	 0.265924
H	 2.0249270701	-1.7743016376	 4.9613561638	 0.126395
H	 3.4326544391	-1.0788743191	 4.1478145143	 0.127027
H	 2.1182337117	-0.0231916405	 4.6971391653	 0.154413
