17
gdb 52643	1.96036	1.156	0.80299	2.9361	84.33	-0.2456	-0.0586	0.1871	1459.4564	0.131154	-384.647557	-384.636744	-384.6358	-384.686371	36.438	
C	 0.9014913601	 1.0260353909	 0.247464826	-0.497245
C	 0.4083376515	-0.3370784454	 0.1158786998	 0.032483
C	 0.0042120691	-1.4670187827	 0.0157428299	 0.094129
C	-0.5058027023	-2.8271772148	-0.1488401225	-0.240361
C	-2.034939578	-2.8788138307	-0.2851559248	-0.389979
C	 0.1836975846	-3.4843791185	-1.3632394873	 0.230583
O	-0.4308475534	-3.8834370404	-2.3247880746	-0.285945
C	 1.6268387406	-3.6157196346	-1.2687636974	 0.278251
C	 2.8176322715	-3.7637922465	-1.1769471626	-0.40214
H	 1.3034655218	 1.210015846	 1.249800997	 0.149325
H	 1.701251934	 1.2277642693	-0.4735636609	 0.152081
H	 0.1038650614	 1.7555702546	 0.0696282831	 0.151169
H	-0.1970122693	-3.4204321146	 0.7254303883	 0.124902
H	-2.3585999293	-2.3243339806	-1.1680120162	 0.140819
H	-2.3734498597	-3.9121820941	-0.3909541489	 0.127291
H	-2.5009701044	-2.4373661191	 0.5986073411	 0.120587
H	 3.8705777221	-3.8916905388	-1.1072895101	 0.214051
