19
gdb 108368	2.33077	1.4926	1.1152	1.9844	71.52	-0.2267	0.0628	0.2896	1143.3141	0.15704	-460.104359	-460.095026	-460.094082	-460.138064	35.178	
C	 0.0065803533	 1.5253056874	-0.1261294898	-0.465979
C	 0.0520398437	 0.0309740271	 0.0812301524	 0.297722
O	-1.0930643658	-0.6623924991	-0.3558459227	-0.463274
C	 1.315077186	-0.7828667475	-0.0489964386	-0.030602
O	 2.4633505958	-0.0542674958	 0.3772539979	-0.286882
C	 1.9185443352	 0.0375003759	 1.7264504399	-0.144828
C	 0.6250002354	-0.6577800187	 1.3102885467	 0.190866
C	-0.1105332033	-1.6478552442	 2.1669716881	-0.183575
O	 0.7489644488	-2.6544415632	 2.6927277198	-0.416359
H	 0.970342489	 1.9838221546	 0.1027417661	 0.143256
H	-0.220326825	 1.7488714722	-1.1759365999	 0.108336
H	-0.7699850623	 1.9863048185	 0.4919882211	 0.12526
H	-1.1520346337	-0.5541038106	-1.3117729482	 0.286271
H	 1.4449405485	-1.6060219781	-0.7453011258	 0.100571
H	 2.5058643305	-0.5739003271	 2.4186077517	 0.125195
H	 1.8641879812	 1.0708909091	 2.0865080382	 0.104405
H	-0.5301661395	-1.1437204422	 3.0457721181	 0.111422
H	-0.9468534096	-2.0751577988	 1.6019683503	 0.116926
H	 1.1187576119	-3.1329147295	 1.9430588545	 0.281271
