21
gdb 97766	5.87584	0.54344	0.54018	1.5056	89.94	-0.2382	0.0539	0.2921	2128.3733	0.18135	-387.058142	-387.04798	-387.047036	-387.095786	36.618	
C	-0.5851213377	 1.9021486007	-0.3061419262	-0.362449
C	-0.2011666949	 0.4545544818	 0.0516256003	-0.315311
C	 0.6175845098	-0.1899704152	-0.9704862007	 0.120264
C	 1.2902954472	-0.6951583045	-1.8343899017	 0.021548
C	 2.1074603762	-1.3275745939	-2.8491843259	-0.161243
C	 3.6137947059	-1.6173717012	-2.5417379307	-0.268591
C	 3.4632749557	-2.9436099327	-3.3309458097	 0.16271
O	 4.1655749402	-4.0890107141	-2.92786415	-0.432493
C	 1.9283217147	-2.8567248769	-3.1269706655	-0.268416
H	 0.307931541	 2.5194417173	-0.4363108601	 0.12701
H	-1.1543255577	 1.9332852782	-1.2391759901	 0.127133
H	-1.1971389715	 2.3429551893	 0.4866106287	 0.112457
H	 0.3351286898	 0.4456799888	 1.0095847536	 0.125387
H	-1.1129748246	-0.134942606	 0.2144959544	 0.126323
H	 2.0284431218	-0.7748193786	-3.7918789177	 0.09979
H	 4.3573368551	-0.8887537173	-2.8708661806	 0.106211
H	 3.7516620235	-1.8140278026	-1.4734827983	 0.101241
H	 3.722372636	-2.799065223	-4.3845629792	 0.094121
H	 3.9651071821	-4.249417861	-1.9995160369	 0.276586
H	 1.6277746771	-3.3762879391	-2.2112597515	 0.101435
H	 1.2695398104	-3.15909921	-3.9434509721	 0.106286
