18
gdb 109355	3.08886	1.15999	0.93994	0.9678	73.91	-0.2373	-0.0041	0.2332	1249.8711	0.148507	-439.074432	-439.065886	-439.064941	-439.108022	31.523	
O	 0.1736667039	 1.238162994	 0.7309209641	-0.404406
C	 0.0388127834	-0.0325696036	 0.1315233743	-0.151859
C	-1.3541776808	-0.3710090276	-0.3411273522	 0.26259
C	-2.3737421043	 0.4832642157	-0.2590358091	-0.17878
C	-3.7505442832	 0.092511364	-0.7137241318	-0.133621
O	-4.3313421916	-0.9810400454	 0.0558554143	-0.22107
C	-3.7018527085	-2.1792032195	 0.1077345183	 0.14352
N	-2.5736696577	-2.5906557326	-0.2819790026	-0.264034
C	-1.5480107163	-1.7651762325	-0.9131355553	-0.269488
H	-0.3396167789	 1.2310804345	 1.5459046205	 0.28696
H	 0.7241548854	-0.0361694421	-0.7274293222	 0.128878
H	 0.3909957228	-0.8369131924	 0.8000747176	 0.107744
H	-2.2212136134	 1.4804055096	 0.1402487324	 0.097381
H	-4.4587516868	 0.9144115517	-0.5967460624	 0.122529
H	-3.7547247813	-0.2027173812	-1.7719291006	 0.119144
H	-4.3687211877	-2.8835638189	 0.6072557674	 0.120084
H	-1.745881827	-1.6956033192	-1.9939658659	 0.123502
H	-0.6074761877	-2.3220435346	-0.8295875867	 0.110927
