19
gdb 92111	2.7457	1.63309	1.37456	1.6056	74.29	-0.2346	0.0736	0.3081	1009.8734	0.159864	-422.998281	-422.990639	-422.989695	-423.029892	31.214	
C	-0.2791652921	 1.5553858019	-0.0046858625	-0.398399
C	 0.0413742949	 0.0634582242	-0.0103057418	 0.116366
O	 0.7157202098	-0.3252179803	-1.2233983078	-0.283726
C	 2.0069465502	-0.8049111946	-0.8759967637	 0.089956
C	 2.9036201749	 0.3392650117	-0.2950927861	-0.321389
C	 2.430135801	-0.1017718897	 1.0879627662	 0.383751
O	 3.0432470641	 0.1942776818	 2.2879680058	-0.461701
C	 1.9180857863	-1.4380054887	 0.5340085039	-0.193034
C	 0.9551817144	-0.4297073374	 1.1054353981	-0.111922
H	 0.6295649918	 2.1623631798	 0.0137360546	 0.122302
H	-0.8570896318	 1.8223021359	-0.8940614887	 0.123319
H	-0.8759307041	 1.8076136264	 0.8787222539	 0.112554
H	-0.9033132744	-0.4986068866	 0.0298880875	 0.0757
H	 2.4016385445	-1.3825111101	-1.7101214919	 0.083269
H	 3.9678581354	 0.1096649038	-0.426662739	 0.087867
H	 2.7031494362	 1.3562341766	-0.6453231866	 0.100535
H	 3.9742873493	-0.0459902113	 2.216932621	 0.284316
H	 2.0333754061	-2.467703116	 0.8430604	 0.09234
H	 0.5440965034	-0.6070373671	 2.0924673669	 0.097898
