17
gdb 79251	2.44169	1.66233	1.40913	1.3533	67.54	-0.2274	0.0604	0.2877	980.1337	0.134903	-458.898281	-458.890125	-458.889181	-458.930298	32.348	
O	-0.1184462386	 1.4425299035	 0.0110964755	-0.440871
C	-0.0110156347	 0.0407688721	-0.0699093693	 0.121339
C	-1.3134866094	-0.7359143835	-0.1074094195	-0.183789
C	-1.7450233074	-0.8208348924	-1.5967539535	-0.115997
C	-0.7143390649	-0.0359424646	-2.4128760651	-0.289829
C	 0.3356856777	-0.6127608771	-1.431775593	 0.251755
O	 1.6820165307	-0.7252867646	-1.733459719	-0.485996
C	-0.726695617	-1.7666453653	-1.0480765001	 0.282151
O	-0.7013244092	-3.136250783	-1.0543134252	-0.450133
H	 0.7706272222	 1.8097893812	-0.0402860991	 0.285609
H	 0.6583661454	-0.3597052309	 0.7059274434	 0.065839
H	-2.0291142781	-0.8791378026	 0.6908087971	 0.091115
H	-2.77427108	-1.0370736949	-1.8484472964	 0.09446
H	-0.602754297	-0.4593211833	-3.4168928589	 0.08874
H	-0.7953528165	 1.0536279336	-2.4574927819	 0.106747
H	 1.7687777308	-1.088219834	-2.62131893	 0.285921
H	-0.2007735241	-3.4372604742	-0.2875051749	 0.292939
