14
gdb 4367	3.76073	2.01589	1.31479	2.0057	70.14	-0.1997	-0.0184	0.1813	874.2788	0.110356	-374.965344	-374.95852	-374.957576	-374.995855	26.987	
N	 0.0318900609	 1.358019171	 0.1722774004	-0.569532
C	 0.0036225089	-0.0156330037	 0.055386543	 0.36077
C	-1.2059902046	-0.7333971604	 0.0563319641	-0.093175
N	-1.2146336711	-2.0604155712	-0.0024720122	-0.216017
C	-0.0465818736	-2.6899953137	-0.064147397	-0.093176
C	 1.163722806	-1.9734317758	-0.0690926282	 0.360688
N	 2.3819090372	-2.6083124351	-0.1890604373	-0.569478
N	 1.1835852239	-0.6389586724	-0.0082982216	-0.377557
H	 0.9052060741	 1.781111443	-0.1037498025	 0.253842
H	-0.7895699668	 1.8571752655	-0.1297499103	 0.253981
H	-2.163041885	-0.221500464	 0.111376267	 0.09093
H	-0.0571534371	-3.7754112755	-0.1168346993	 0.090934
H	 2.4262574867	-3.5677321165	 0.1154249817	 0.25396
H	 3.1731235405	-2.0446791511	 0.083268832	 0.25383
