19
gdb 103893	2.89951	0.90752	0.84849	4.355	73.59	-0.2652	0.0055	0.2707	1430.5474	0.156246	-460.164139	-460.154067	-460.153123	-460.200073	35.604	
C	-0.1763039017	 1.7920292778	 0.585387205	-0.467504
C	-0.0632622664	 0.3657901576	 0.0872047746	 0.250883
C	-1.3595115594	-0.1850075156	-0.496855439	-0.141994
O	-1.274064986	-1.5357904862	-0.9245181389	-0.413081
C	 1.2601957849	-0.086391402	-0.5066985492	-0.372799
C	 0.8203047713	-0.6064536686	 0.8256889833	 0.103868
O	 1.5659750389	-0.1593976282	 1.94337154	-0.185917
C	 1.1295267488	-0.5479867468	 3.1588878388	 0.168547
O	 1.6622725987	-0.2076182391	 4.1717764663	-0.27505
H	 0.7466443287	 2.1191868767	 1.0681480329	 0.143187
H	-0.3911561257	 2.4772751998	-0.2420853956	 0.120973
H	-0.9871455339	 1.8899301512	 1.3170237438	 0.121495
H	-2.1371995813	-0.1616626104	 0.2764560709	 0.114895
H	-1.6993340112	 0.4698689078	-1.3140439217	 0.097362
H	-0.8814091472	-1.5497657514	-1.8019750642	 0.290998
H	 1.2736159463	-0.7867321042	-1.3349879607	 0.105161
H	 2.0713152241	 0.6332004483	-0.5069254046	 0.132856
H	 0.4999662061	-1.6416143059	 0.8879955032	 0.124522
H	 0.2466278348	-1.2135168709	 3.1060170352	 0.081597
