14
gdb 47135	3.23738	1.25346	0.91171	4.1644	71.76	-0.2411	-0.0527	0.1884	1176.3052	0.103194	-432.933186	-432.925257	-432.924313	-432.966331	28.615	
O	 0.003728634	-0.0496840905	-0.0034111595	-0.393973
C	-0.0059423139	 1.1632200286	 0.0151145399	 0.456637
N	-1.1374177936	 1.9215040473	-0.1309928484	-0.358296
C	-1.2609352516	 3.3591821503	 0.080610565	-0.203442
C	 0.0793949903	 4.0213837379	-0.0235844724	-0.171908
C	 1.2018045159	 3.2905170805	 0.0259010928	 0.28673
N	 1.1677113007	 1.9023523663	 0.1625124523	-0.449532
C	 2.49984389	 3.886543766	-0.0465326191	 0.219894
N	 3.5610829612	 4.3446708571	-0.1007069615	-0.320487
H	-1.9789648202	 1.3690289625	-0.1732050532	 0.262307
H	-1.943009371	 3.7743790974	-0.6731766343	 0.13362
H	-1.7146863549	 3.584120264	 1.0618247072	 0.129304
H	 0.1312983073	 5.0969685973	-0.1138256927	 0.131744
H	 2.0179129357	 1.3636714853	 0.1339081239	 0.277402
