21
gdb 90452	2.86893	1.28284	1.18297	1.2306	77.9	-0.2358	0.0692	0.305	1151.8715	0.182289	-424.221187	-424.212167	-424.211223	-424.254293	35.581	
C	 0.1661035251	 1.6641725754	 0.1095317467	-0.48872
C	 0.1317570503	 0.1548997252	 0.0707161183	 0.402371
O	-1.1303946264	-0.3573506318	-0.3080046143	-0.470579
C	 1.292380793	-0.7261195459	-0.3517208481	-0.121641
C	 2.7243462918	-0.2069120604	-0.342104907	-0.238167
C	 3.0555139254	 0.2339485386	 1.1065765684	 0.101328
O	 3.2281087494	 1.6527095155	 1.1096821454	-0.415879
C	 1.877132528	-0.2508361249	 2.0029500114	-0.269066
C	 0.774724448	-0.7539758868	 1.08202823	-0.081332
H	 1.1293018218	 2.0538499805	 0.4406893646	 0.152635
H	-0.0337283605	 2.0711096909	-0.8906899867	 0.099032
H	-0.6179311617	 2.0340877055	 0.779063304	 0.116898
H	-1.2952289641	-0.0758581207	-1.2150436369	 0.275187
H	 1.0430689651	-1.533557358	-1.0319206598	 0.079692
H	 3.3982122548	-1.0110474865	-0.65436869	 0.100616
H	 2.8982995331	 0.6362560523	-1.0182585132	 0.114903
H	 3.9946223615	-0.2285379592	 1.4403329038	 0.073313
H	 3.4007666449	 1.9268826799	 2.0161479725	 0.281035
H	 2.2075620751	-1.0756291532	 2.6435386942	 0.101111
H	 1.5529442416	 0.5576090596	 2.6694455161	 0.096085
H	 0.154413154	-1.575178596	 1.4233212806	 0.091178
