21
gdb 39518	2.85575	1.82591	1.46976	0.5242	86.66	-0.2162	0.0192	0.2354	983.6464	0.186966	-349.951773	-349.944906	-349.943962	-349.982535	29.497	
C	-0.1465825022	 1.4279960846	 0.0239192059	-0.269593
C	 1.2842010127	 1.9249743868	 0.0729680946	-0.149469
C	 2.1590474687	 0.9800231797	-0.293383671	 0.230947
C	 3.523166299	 0.7835608558	 0.2903026145	-0.284302
C	 3.3331874015	-0.347335407	 1.3760551161	-0.181746
C	 1.8486217915	-0.5692392833	 1.7791384246	-0.228741
C	 1.0146459516	-0.9423940831	 0.5424560523	-0.021031
C	 0.0365844325	-0.0613208567	-0.2581241778	-0.066552
C	 1.4489991602	-0.2676790819	-0.7352602893	-0.131972
H	-0.6486150291	 1.6266986761	 0.9806790878	 0.104891
H	-0.7658704724	 1.9031339475	-0.7507278855	 0.102069
H	 1.5589276886	 2.8485051893	 0.5736245076	 0.081243
H	 4.2756070648	 0.4679505567	-0.4411831394	 0.096745
H	 3.8823783773	 1.7071723738	 0.7545740655	 0.098361
H	 3.7149116441	-1.2920753691	 0.9735143817	 0.100918
H	 3.936328378	-0.1179881295	 2.260663691	 0.093775
H	 1.799527871	-1.3817171496	 2.511939582	 0.089706
H	 1.4559708441	 0.318135156	 2.2843234337	 0.103168
H	 0.7682999906	-1.9988692686	 0.4667458597	 0.079883
H	-0.7803557948	-0.600433353	-0.7256272684	 0.076953
H	 1.7450793722	-0.8135926348	-1.6253244855	 0.074748
