18
gdb 32453	3.20206	1.22934	0.89986	1.6063	76.75	-0.1854	0.0359	0.2213	1289.3473	0.146621	-439.099472	-439.089764	-439.08882	-439.134192	34.493	
C	-0.0418188643	 1.3455402657	-0.0271903106	-0.250624
O	-0.0624548298	-0.0688109802	 0.0297035392	-0.272187
C	 0.6293702601	-0.6109929983	 1.0620381626	 0.29683
C	 1.3559375383	-0.0391766172	 2.0619389166	-0.1812
O	 1.8734304279	-1.0195337713	 2.860332435	-0.200541
C	 1.4553655441	-2.2270651301	 2.3660112363	 0.342183
C	 1.8889160039	-3.4512336562	 3.0859747274	-0.49956
C	 0.6925359203	-2.0339545299	 1.2522524849	-0.006229
N	 0.0281513004	-2.9827588002	 0.4518428243	-0.625239
H	 0.9849001593	 1.7202331079	-0.1372916049	 0.122264
H	-0.6317838725	 1.6375588781	-0.8972148591	 0.133734
H	-0.4833640832	 1.7817848331	 0.8788784228	 0.124197
H	 1.5922737421	 0.9741650725	 2.3329147061	 0.12604
H	 1.7382127413	-3.3460226442	 4.1659363662	 0.13727
H	 1.2977025587	-4.3057236792	 2.7447810478	 0.133014
H	 2.9493356996	-3.6858849214	 2.925540861	 0.128274
H	 0.6354264327	-3.7338087876	 0.1478016858	 0.242318
H	-0.3693808789	-2.5370356414	-0.3661764614	 0.249456
