19
gdb 85770	2.93113	1.21175	0.91244	0.9287	80.06	-0.2528	-0.0181	0.2347	1299.8032	0.158405	-419.247037	-419.237559	-419.236615	-419.281711	34.135	
C	-0.7297061254	 1.2587753346	 0.1508688254	-0.400702
C	 0.0073258908	-0.0580146551	-0.0565140213	-0.087795
C	 1.0434610571	-0.1423458713	-1.2215704075	-0.187887
N	 2.0753593329	-0.417765453	-0.2091585635	-0.129672
C	 3.4180677477	-0.6627454787	-0.421433352	 0.383445
C	 4.2504244802	-0.9237094176	 0.8172731621	-0.503038
O	 3.8669978659	-0.6619055013	-1.5487476693	-0.338637
C	 1.1819506015	-0.326407753	 0.8831257881	 0.388814
N	 1.2516893339	-0.4012923717	 2.1401014374	-0.546671
H	-0.0362028241	 2.1058631885	 0.1353878617	 0.123107
H	-1.478086648	 1.4160520471	-0.6320737351	 0.121782
H	-1.2378482738	 1.2586912328	 1.1189751547	 0.143492
H	-0.6947446457	-0.8966457919	-0.063105429	 0.108012
H	 0.9109497743	-0.9585460852	-1.9350504025	 0.129129
H	 1.216074669	 0.7923047803	-1.7617485451	 0.127364
H	 4.244351644	-0.0512437523	 1.4792305574	 0.148349
H	 3.8568874343	-1.7760908113	 1.3805290024	 0.147997
H	 5.2738609277	-1.1334096829	 0.5072438197	 0.152048
H	 2.1950185076	-0.5788735882	 2.4812023463	 0.220865
