20
gdb 82099	2.74427	1.48446	1.25391	1.4963	78.26	-0.2229	0.0792	0.3021	1090.4672	0.170615	-403.071127	-403.062739	-403.061795	-403.104186	32.205	
C	-0.2265819615	 1.7116526193	 0.1380406975	-0.404031
C	-0.2507018536	 0.1906421207	 0.100711206	-0.041959
C	 0.6974879032	-0.508325244	-0.8863646261	 0.022168
O	 2.0332848076	-0.1319614517	-0.5411045253	-0.238741
C	 1.4236012593	-1.2099191272	 0.1873119753	-0.027056
C	 0.4764211791	-0.6125024348	 1.257323307	 0.014231
N	 0.9284855346	 0.1237868696	 2.4166170573	-0.083666
C	 1.9330968746	-0.508462865	 3.2674019306	-0.230218
C	 2.2791004899	 0.6827720447	 2.4444461939	-0.22161
H	 0.8004911132	 2.0829103037	 0.1130620303	 0.133358
H	-0.764030105	 2.1304461006	-0.7196522889	 0.107884
H	-0.700473527	 2.0806872597	 1.0518755345	 0.127461
H	-1.2757453533	-0.1767836495	-0.0092856864	 0.076337
H	 0.5219098347	-0.8084692898	-1.9131415223	 0.102368
H	 1.9409799638	-2.1631312632	 0.1708318977	 0.099622
H	-0.191072045	-1.4036285362	 1.6165286826	 0.085192
H	 1.7700749876	-0.4174215465	 4.3378311965	 0.114575
H	 2.3453042739	-1.4652640048	 2.9505987797	 0.10789
H	 2.9166536652	 0.5334925981	 1.580106202	 0.142992
H	 2.3597592586	 1.6597923862	 2.9131522782	 0.113203
