18
gdb 34957	3.12239	1.57902	1.50637	1.6199	80.23	-0.2092	0.028	0.2372	958.3022	0.149039	-364.711487	-364.704415	-364.703471	-364.742713	29.045	
C	-0.2097993483	-1.2689482958	-0.1623104986	-0.453788
C	-0.1202874259	-0.0722666822	-0.0731787594	 0.339487
C	-0.007436681	 1.3663619024	 0.0546718942	-0.148859
C	-0.2798161522	 2.0429344462	 1.4260430373	-0.062905
C	 0.4566190599	 1.3503342855	 2.6004313818	-0.240422
C	 1.805728298	 1.9568599756	 2.1250320286	-0.046857
C	 2.3513394845	 1.2672000561	 0.8599422449	-0.176572
N	 1.3780974586	 1.9879780733	-0.0347244988	-0.166035
C	 1.0069950474	 2.8799617905	 1.1499449119	 0.003088
H	-0.2956318172	-2.3235828324	-0.25411455	 0.199727
H	-0.6129878118	 1.8455073056	-0.7238444846	 0.109803
H	-1.2800028765	 2.4403163677	 1.6007984135	 0.072862
H	 0.1484860489	 1.7926050506	 3.5521226568	 0.104052
H	 0.3806042106	 0.2614906586	 2.6741879669	 0.107317
H	 2.5109014545	 2.2976686747	 2.8837911953	 0.066462
H	 3.3644986538	 1.5944101414	 0.6054510067	 0.106363
H	 2.3079824414	 0.1752856264	 0.8038258273	 0.113849
H	 1.0793239852	 3.9615980759	 1.0449712662	 0.072427
