21
gdb 99990	2.74363	1.10142	0.96361	0.1333	80.47	-0.2514	0.031	0.2824	1329.7329	0.177568	-424.190876	-424.17962	-424.178676	-424.226539	41.543	
C	 0.1300351335	 1.5674840796	-0.0943665976	-0.401564
C	-0.0124051597	 0.0482613514	 0.0301152018	-0.202108
C	-1.4672587261	-0.4592673649	 0.0836247712	 0.343519
C	-2.2644120047	 0.147402285	 1.2372495875	-0.424596
O	-2.1707226489	-0.1023055732	-1.1054442667	-0.45682
C	-1.4374075099	-2.0208085432	 0.1905683991	-0.095656
O	-0.7501880942	-2.4644689188	 1.3590834928	-0.42334
C	-2.77136703	-2.6155472567	 0.0963102471	 0.308794
C	-3.8597031093	-3.1262861521	 0.0830591753	-0.441601
H	 1.1722325268	 1.8409729142	-0.2843845681	 0.110913
H	-0.4798371072	 1.9484239393	-0.9186137121	 0.124714
H	-0.1814359441	 2.0820702186	 0.8194206587	 0.11886
H	 0.4713501695	-0.4306241051	-0.8347109073	 0.078223
H	 0.5189488831	-0.3219753443	 0.9121466931	 0.117966
H	-2.350573263	 1.2282474453	 1.1111484298	 0.129719
H	-3.2731507339	-0.2723305173	 1.260348038	 0.132599
H	-1.7715041011	-0.0514265125	 2.1929921887	 0.112159
H	-1.67270269	-0.4334978088	-1.8615012595	 0.277349
H	-0.8310591181	-2.385269295	-0.6510985133	 0.10089
H	-1.3927278047	-2.5010383639	 2.0753893182	 0.290645
H	-4.822642228	-3.5734295078	 0.0502398434	 0.199335
