15
gdb 67817	3.09349	1.92391	1.64385	1.6952	63.72	-0.2312	-0.0006	0.2305	836.7174	0.113679	-457.738698	-457.732395	-457.731451	-457.768881	26.69	
O	-0.0653629474	 1.3592837589	-0.0627102019	-0.46936
C	 0.0531894973	-0.0282293313	-0.0634376238	 0.25486
C	 1.0977494384	-0.6912095468	-0.8512450391	-0.142256
C	 1.0832400993	-2.0315025366	-0.8314078794	-0.075223
C	-0.0237596489	-2.6056595601	 0.0000923142	 0.104931
O	-1.2770117114	-2.0821366752	-0.4769928367	-0.255946
C	-1.2930404771	-0.7800882877	 0.0256454741	 0.015801
C	-0.3989948836	-0.7854453233	 1.2199482272	-0.03226
O	 0.0868789212	-2.0891170033	 1.3403158549	-0.256802
H	 0.6329709754	 1.7219748275	 0.4942520123	 0.289322
H	 1.8095776028	-0.0903501584	-1.4078827397	 0.106424
H	 1.7817960638	-2.666287852	-1.3606698481	 0.105295
H	-0.0841895708	-3.6916996611	 0.0414871759	 0.100514
H	-2.2282726748	-0.2520898351	-0.0918857423	 0.131761
H	-0.5557072242	-0.2662366554	 2.1550308423	 0.122939
