20
gdb 79761	2.70453	1.93155	1.77056	1.6348	79.71	-0.22	0.0809	0.3009	909.9013	0.174874	-366.001683	-365.994997	-365.994053	-366.032309	28.487	
C	-0.17187361	 1.543378955	 0.0430932672	-0.403554
C	-0.0119055463	 0.0179000354	-0.0067917771	 0.00473
C	 0.5847828423	-0.5421696381	-1.2946474203	-0.076468
C	 2.0865446901	-0.495345123	-1.4425069072	-0.073144
C	 2.8635464061	 0.0679173315	-0.2636341432	-0.178506
N	 2.3347124834	-0.5756874842	 0.9507624744	-0.120621
C	 1.5849625201	-1.7826068439	 0.5407131819	-0.065285
C	 1.4145926095	-1.7705930058	-0.9685833115	-0.084399
C	 0.8655998953	-0.5910421662	 1.0831047881	-0.054978
H	 0.7818505855	 2.0613901103	-0.0861677518	 0.122701
H	-0.8466195022	 1.8875361495	-0.7477498311	 0.112379
H	-0.5963762727	 1.859328637	 1.0018158372	 0.114695
H	-1.010903896	-0.4255402731	 0.1186766611	 0.075794
H	-0.0124336132	-0.5053490731	-2.2000011432	 0.079172
H	 2.5065588244	-0.4265939661	-2.440516358	 0.082536
H	 3.925365263	-0.1931697984	-0.3473986301	 0.104629
H	 2.8013336814	 1.1563858497	-0.1685475554	 0.107901
H	 1.7592520387	-2.7046455357	 1.0834428033	 0.085791
H	 1.3892389761	-2.6844444095	-1.5463878358	 0.08367
H	 0.5173125246	-0.5303152113	 2.1117031916	 0.082956
