20
gdb 112292	2.81417	1.27772	0.97334	4.0061	79.49	-0.2355	0.0293	0.2648	1257.0686	0.172549	-403.190704	-403.182216	-403.181272	-403.22395	32.663	
C	-0.1104999809	 1.6029733664	 0.0460622575	-0.393947
C	-0.1481339485	 0.0732940846	-0.0245637806	-0.171023
C	 0.7061725469	-0.5118980525	-1.1550266313	 0.025147
N	 2.134150985	-0.2414437264	-1.0130355352	-0.329146
C	 2.9674171212	-1.2887382174	-1.3462730337	 0.414316
O	 4.1608318133	-1.2105248496	-1.537422076	-0.385884
C	 2.1002587376	-2.5183738989	-1.4172899493	-0.159702
C	 1.3268266695	-2.8214506269	-0.1491084344	-0.287181
C	 0.6746979999	-2.0400895901	-1.2524418773	-0.053598
H	 0.8945365682	 1.9706033263	 0.2797700192	 0.11709
H	-0.4213185162	 2.0541090052	-0.9031895078	 0.117218
H	-0.7807126129	 1.9764777754	 0.8256756766	 0.121523
H	 0.1802244421	-0.3544278142	 0.9289690161	 0.104017
H	-1.1812912596	-0.260631392	-0.1819920406	 0.100543
H	 0.3395102137	-0.0964092662	-2.1081092566	 0.078835
H	 2.5086552335	 0.6937569991	-1.0086967675	 0.248863
H	 2.4083572094	-3.3180562983	-2.0768395875	 0.109083
H	 1.0022426338	-3.8471769185	-0.0137097554	 0.120592
H	 1.6233051726	-2.3176618234	 0.7646180956	 0.127585
H	-0.1422088885	-2.4898488024	-1.803036952	 0.09567
