19
gdb 95019	2.52399	1.91729	1.44653	2.1973	72.96	-0.2328	0.0684	0.3012	966.2672	0.160613	-422.987636	-422.980222	-422.979278	-423.019329	29.541	
C	-0.0409547675	 1.5849473157	-0.056584344	-0.414453
C	 0.0374574626	 0.0597136303	 0.0106192774	 0.003958
C	 0.7867071542	-0.5755287923	-1.1907355843	-0.088358
O	 1.3589313698	-1.8070401543	-0.7355759133	-0.263914
C	 1.608371961	-1.7125878412	 0.6411248193	 0.080456
C	 2.8979882469	-1.0040041366	 1.1313724752	-0.005202
O	 2.9287061088	 0.3066635317	 0.5535763861	-0.238769
C	 2.1021880083	 0.1005799824	 1.7037736419	 0.006936
C	 0.774547547	-0.5263371855	 1.228063873	-0.106336
H	 0.9594016742	 2.0273786546	-0.0544454245	 0.13897
H	-0.5510025314	 1.9109080982	-0.9694083457	 0.115624
H	-0.5976291495	 1.9923558572	 0.7936041887	 0.111516
H	-0.98047782	-0.3478967993	 0.0262516391	 0.078575
H	 0.1176558116	-0.8184539948	-2.0228703931	 0.09676
H	 1.570614613	 0.0986630766	-1.5518988664	 0.112131
H	 1.463383075	-2.6916808468	 1.1061369982	 0.084164
H	 3.8485766418	-1.4281795276	 1.4346348665	 0.103888
H	 2.2942259587	 0.7246391022	 2.5685641074	 0.105771
H	 0.1163520354	-0.7974491503	 2.0552447385	 0.078283
