23
gdb 101448	2.31326	1.24108	1.00993	2.9112	81.95	-0.2331	0.0727	0.3058	1326.4056	0.203566	-425.40143	-425.390885	-425.389941	-425.43759	37.784	
C	 0.1974344255	 1.4225219627	 0.250274803	-0.237768
O	-0.0241610646	 0.0486736591	 0.0288380535	-0.238193
C	 0.642123398	-0.4958552608	-1.1045493959	 0.1135
C	 2.1449873825	-0.6682298098	-0.8457942987	-0.407217
C	-0.0110092768	-1.8343560376	-1.4456540309	-0.074216
C	-0.4030701388	-2.7638426168	-0.2742252682	-0.075981
O	-1.7876758517	-2.7608284635	-0.671505732	-0.292923
C	-1.520971525	-1.9199571947	-1.8189348049	 0.14591
C	-2.3961280802	-0.6813607091	-1.8481306152	-0.412132
H	 1.2369294091	 1.6450980647	 0.529869437	 0.109549
H	-0.0577296854	 2.0228364857	-0.6369644489	 0.105071
H	-0.4527613263	 1.7219354401	 1.0759742922	 0.130266
H	 0.5066387109	 0.1892386524	-1.9600241123	 0.065856
H	 2.6440993687	-1.0631664843	-1.7359968927	 0.117273
H	 2.6226498831	 0.2823934047	-0.5941562184	 0.117294
H	 2.3123526463	-1.3636680921	-0.017062557	 0.127342
H	 0.6169096904	-2.325543498	-2.1935244057	 0.0745
H	 0.0313748182	-3.7710587898	-0.3044927937	 0.089314
H	-0.2656151058	-2.3362505354	 0.7241214802	 0.11279
H	-1.6740421727	-2.4922536163	-2.7464331926	 0.065704
H	-2.2672929135	-0.0916620901	-0.9402073014	 0.139855
H	-2.1564560925	-0.0598002104	-2.7187113819	 0.104105
H	-3.4459125697	-0.9812458206	-1.9308246355	 0.120103
