21
gdb 116647	3.05193	0.88766	0.69958	3.1493	86.91	-0.2382	-0.01	0.2282	1632.9278	0.180592	-420.447623	-420.436921	-420.435976	-420.48391	37.723	
C	 0.7936709944	-0.3323944975	-0.2025582125	-0.397398
C	-0.1332906237	-0.6780072367	 0.9669940335	-0.111348
N	-1.4541361603	-1.2176577754	 0.686093014	-0.257291
C	-1.8317729822	-1.3989525219	-0.5095358382	 0.104793
N	-3.0927512762	-1.9146025537	-0.7918340196	-0.135471
C	-3.9610419661	-2.2374908283	 0.3402896253	-0.336849
C	-3.5643367338	-2.1359065544	-2.0851118125	 0.421949
C	-2.6444996864	-1.7919640038	-3.2470084589	-0.506467
O	-4.6742348315	-2.5872921258	-2.2829527432	-0.350714
H	 1.7390783847	 0.0583887752	 0.1851568341	 0.118361
H	 1.0262346858	-1.2104034963	-0.8150598021	 0.119518
H	 0.3625175768	 0.4348544648	-0.8549226534	 0.119516
H	 0.3705163485	-1.3983977131	 1.6257526535	 0.114213
H	-0.28114636	 0.2169561649	 1.5866113542	 0.114211
H	-1.2331572911	-1.1787898252	-1.3921270547	 0.102559
H	-4.138086341	-1.3417440232	 0.940361518	 0.13897
H	-4.8945613128	-2.6244989438	-0.0601115211	 0.161534
H	-3.4767108829	-2.9785187066	 0.980652644	 0.138992
H	-1.7166658773	-2.3712896563	-3.2195407202	 0.144825
H	-3.1867378482	-2.0320523268	-4.1607512082	 0.151216
H	-2.3785023167	-0.7306465162	-3.2579030521	 0.144881
