21
gdb 99933	3.47545	0.7105	0.68171	1.2942	102.17	-0.2383	-0.0063	0.232	1765.1709	0.178683	-349.915203	-349.9042	-349.903256	-349.951085	40.531	
C	-0.1010307936	 1.5245496664	 0.1581203158	-0.407397
C	 0.0158578	 0.0073996416	-0.0218699315	-0.172148
C	 0.7495460314	-0.4727563177	-1.3125275573	-0.010505
C	 0.0111641967	 0.0030675228	-2.5865029149	-0.402882
C	 2.2142786795	 0.0255144545	-1.3424908378	-0.402887
C	 0.7540591385	-1.9378242671	-1.2941416985	 0.536008
C	 0.7514755569	-3.1487289269	-1.2678146621	-0.354578
C	 0.7504973441	-4.5095412878	-1.2416451486	 0.303599
C	 0.7488942685	-5.717111488	-1.2172702461	-0.583973
H	 0.8778309651	 2.009647694	 0.2158272996	 0.120991
H	-0.6626402602	 1.9942802551	-0.6547600239	 0.120986
H	-0.6299284298	 1.7467643461	 1.0900512021	 0.11842
H	 0.539430125	-0.4211873269	 0.8402173245	 0.107198
H	-0.9861004496	-0.4365457215	-0.0212898694	 0.107197
H	 0.0352146982	 1.0940101534	-2.6606584406	 0.117425
H	 0.4873490113	-0.4073928669	-3.481006315	 0.1253
H	-1.0331364807	-0.321891937	-2.5787818842	 0.123422
H	 2.7518956171	-0.2832073251	-0.4414446661	 0.123419
H	 2.7406737379	-0.384539174	-2.2085902736	 0.125301
H	 2.2484851554	 1.1165532006	-1.41103149	 0.117428
H	 0.7480771082	-6.7783628457	-1.1967446323	 0.187677
