16
gdb 73179	2.47491	1.53371	1.40182	4.9926	68.81	-0.2686	-0.0069	0.2618	1006.1612	0.12336	-437.852946	-437.844895	-437.843951	-437.88571	29.69	
C	-0.2329205061	 1.3818620052	-0.1184764096	-0.487429
C	 0.0343264689	-0.0846950405	 0.0610998957	 0.382332
O	-1.1462959919	-0.8676537312	 0.2859585842	-0.311779
C	-0.5386872068	-1.5757610596	 1.4030165858	-0.101981
C	 0.7882224085	-0.8386786904	 1.1839177451	 0.015068
O	 1.6485256589	-1.4990540534	 0.2336932595	-0.295091
C	 1.049072743	-0.806549562	-0.8865282759	-0.078686
C	 0.4921394175	-1.6970815095	-1.9015940094	 0.302017
N	 0.0609362517	-2.3883648241	-2.7206054333	-0.318773
H	 0.6996107751	 1.9434109579	-0.2270263816	 0.130325
H	-0.8394831939	 1.5403779351	-1.016804307	 0.150448
H	-0.7871620064	 1.7766137197	 0.7369825393	 0.138794
H	-1.0553518387	-1.343349228	 2.3413902172	 0.114739
H	-0.498284585	-2.6575762795	 1.2469634148	 0.132009
H	 1.3349329017	-0.4124543013	 2.0253382475	 0.102422
H	 1.7748692834	-0.1307699684	-1.3564600122	 0.125585
