15
gdb 66092	2.34694	1.38263	1.08749	2.7795	63.17	-0.256	-0.0665	0.1895	1112.9692	0.109038	-494.884469	-494.875686	-494.874742	-494.918965	30.675	
O	-0.0005287244	 1.4384164909	-0.2764979453	-0.456445
C	-0.0081634395	 0.0801856815	-0.018897299	 0.249366
C	 0.2181746029	-0.343420033	 1.4565332829	-0.126234
O	-1.0196541119	-1.0800673617	 1.4907034556	-0.279156
C	-1.4088040811	-0.6222745833	 0.1875856122	-0.042702
C	-2.567513074	 0.3606688787	 0.2130197479	 0.153792
O	-3.2522192506	 0.5899305664	-0.7467753529	-0.231084
C	 0.8454323926	-0.6629194965	-1.0222231264	 0.120283
O	 1.380712811	-0.0878270206	-1.9369286155	-0.267172
H	 0.4708336735	 1.5529696907	-1.1187286582	 0.302636
H	 1.0841390993	-0.9791835867	 1.6729356249	 0.117466
H	 0.2157660061	 0.523070116	 2.126950803	 0.132637
H	-1.6475244756	-1.4444342981	-0.4972588644	 0.111712
H	-2.7240510416	 0.8475190409	 1.1999550179	 0.097015
H	 0.9388324533	-1.7567841653	-0.8726706027	 0.117885
