17
gdb 6879	2.74995	1.68388	1.43252	3.2675	69.65	-0.2618	0.0313	0.2931	955.9733	0.140204	-363.872466	-363.863632	-363.862688	-363.905295	32.429	
C	-0.1185369419	 1.542022638	-0.0513014741	-0.423521
C	 0.0304342678	 0.0441559126	 0.0772819667	-0.050216
C	 1.3765691846	-0.6601973311	-0.1710738642	-0.279091
C	 2.5591397015	 0.1036665606	-0.429510483	 0.293213
N	 3.5158758518	 0.7287475435	-0.6185051772	-0.353779
C	 0.7092016364	-0.6328548657	 1.2201033274	 0.39151
C	 1.3458569122	 0.1200658942	 2.3634240775	-0.463004
O	 0.0839068625	-1.8279966442	 1.5892746939	-0.454605
H	 0.7855823478	 2.0759560052	 0.2497097191	 0.141313
H	-0.3270550266	 1.815004081	-1.0903793302	 0.13372
H	-0.9496197454	 1.9010039001	 0.5643279364	 0.128202
H	-0.8045053471	-0.5317936839	-0.311256452	 0.114604
H	 1.3275901403	-1.6136327532	-0.6851076271	 0.132576
H	 1.8422856395	 1.033596807	 2.0326178476	 0.147636
H	 0.5865475672	 0.378616614	 3.107628658	 0.134113
H	 2.1044917126	-0.5030445784	 2.8519454112	 0.121426
H	 0.732575477	-2.3797991697	 2.0417903701	 0.285902
