15
gdb 48476	1.98652	1.75541	1.28462	2.8902	67.59	-0.2321	-0.0589	0.1732	1018.3443	0.111754	-453.964732	-453.956321	-453.955376	-453.998666	29.554	
O	-0.6672957891	 0.5382846586	 0.5198641211	-0.243225
C	 0.2479136116	 0.7102149069	-0.2399981506	 0.137678
C	 1.3199721657	 1.7924970313	-0.0696527021	 0.104067
C	 1.2434861992	 2.5397587096	 1.2807406278	-0.253378
N	 2.6102696575	 2.3423504652	 1.7786737227	-0.28855
C	 3.2363096385	 1.449047899	 0.9602083892	 0.078028
N	 2.6332782219	 1.0934113249	-0.1184348423	-0.323521
C	 1.2849179094	 2.7323169415	-1.2848403537	 0.138194
O	 1.0241286118	 3.9038821412	-1.2293910108	-0.240262
H	 0.4108230773	 0.0611431995	-1.1243663169	 0.106857
H	 1.014501816	 3.5977346216	 1.1328148208	 0.14533
H	 0.4901126155	 2.0871808246	 1.9330247652	 0.137132
H	 2.8336733562	 2.413545782	 2.757793626	 0.256782
H	 4.2294724315	 1.0921694552	 1.2175887302	 0.13744
H	 1.558871947	 2.2325244087	-2.2361375667	 0.107428
