17
gdb 54202	2.69868	1.50302	1.27207	4.6586	68.58	-0.2228	0.0249	0.2477	1034.9681	0.135697	-455.119851	-455.111444	-455.1105	-455.152795	32.637	
N	 0.146685603	 0.9831279664	 0.8614795427	-0.53237
C	 0.1311382613	 0.0164848192	-0.1032102972	 0.384879
O	 1.0896675208	-0.2713417097	-0.7892859348	-0.356402
C	-1.1989443567	-0.7365474378	-0.1960936031	 0.313941
O	-2.2425443937	 0.1858140647	 0.0847993912	-0.492585
C	-1.4364115097	-1.6041407584	-1.4785878426	-0.274847
C	-1.645078752	-2.8262886252	-0.5687855844	-0.062474
N	-0.3660422881	-3.0139902615	 0.1490338043	-0.301163
C	-1.3414100985	-2.0244500571	 0.6517858159	-0.144102
H	 0.9535461915	 1.58565027	 0.8913315851	 0.256244
H	-0.7327614753	 1.3339329999	 1.2032963311	 0.266248
H	-3.0599623841	-0.3142454083	 0.1906119661	 0.281278
H	-2.3367281273	-1.2716946116	-2.0003409579	 0.100494
H	-0.5907694628	-1.6719150423	-2.1627221431	 0.140055
H	-2.3329279903	-3.6514679461	-0.7044325775	 0.096035
H	-0.4610046447	-3.8419243353	 0.7376468845	 0.231945
H	-1.7282167833	-2.0696897069	 1.6640001597	 0.092823
