18
gdb 75534	2.33138	1.65762	1.01881	1.4833	77.65	-0.2313	0.0054	0.2367	1161.6296	0.14959	-435.295448	-435.287035	-435.28609	-435.328765	31.512	
C	-0.3934266859	 1.4477868484	-0.0805080934	-0.467779
C	 0.0338152322	-0.0027981022	-0.1021195658	 0.371864
N	-0.3904938199	-0.7485994403	-1.0391147253	-0.28248
C	-0.0186103294	-2.1402283153	-1.1688148934	-0.162528
C	 1.3281144374	-2.5417867081	-0.5860674145	-0.10781
O	 1.2989089048	-2.6171263059	 0.8452654546	-0.241951
C	 1.2970141994	-1.4857536435	 1.5761629673	 0.43463
N	 1.6507340322	-1.4418121772	 2.7955739807	-0.561735
N	 0.8956505622	-0.2950146815	 0.9660569275	-0.378824
H	 0.4774304491	 2.1132136534	-0.093892836	 0.134065
H	-1.0116686412	 1.6480042792	-0.9535000525	 0.152783
H	-0.9658186966	 1.6714332882	 0.8271777008	 0.137845
H	-0.7949785589	-2.7746751914	-0.7181401514	 0.122575
H	-0.0121903465	-2.3829290419	-2.2396791025	 0.110779
H	 1.5939057322	-3.55189244	-0.9075491384	 0.124086
H	 2.1195645916	-1.8553152245	-0.9094468185	 0.123982
H	 1.9963350093	-2.3534779999	 3.0876568336	 0.225659
H	 1.0325823181	 0.4657581124	 1.6159220973	 0.264839
