18
gdb 26759	3.51789	1.08126	0.83564	1.8856	94.62	-0.1897	0.004	0.1938	1372.4289	0.146284	-364.837602	-364.827929	-364.826984	-364.872811	35.032	
C	-0.0706494067	 1.4792252973	 0.1469432065	-0.515677
C	-0.0206554464	-0.0023492497	-0.0344073323	 0.214924
C	 0.0029453118	-0.7880509467	-1.178073061	 0.228571
C	-0.0158809715	-0.3174781755	-2.6024550488	-0.509704
C	 0.0590985965	-2.1417274758	-0.7526736018	-0.348959
C	 0.0690538872	-2.162096982	 0.6313961421	 0.181729
N	 0.0206170117	-0.8444736843	 1.0462804827	-0.367611
C	 0.1133062836	-3.2293803948	 1.5472116315	 0.262636
C	 0.1513800359	-4.1323780609	 2.3460406303	-0.460788
H	 0.8431849757	 1.8691022519	 0.6132172777	 0.131525
H	-0.183348864	 1.9792370336	-0.8168773788	 0.139469
H	-0.914762774	 1.7857004607	 0.7771183038	 0.128835
H	 0.9336635744	-0.5224721951	-3.1114730703	 0.127161
H	-0.8018226564	-0.8187289367	-3.1783873981	 0.126807
H	-0.1958924101	 0.7588007407	-2.6739759404	 0.11738
H	 0.0871125437	-3.0163192156	-1.3845662544	 0.097237
H	 0.0094674258	-0.5591102739	 2.0104783672	 0.260337
H	 0.1848791827	-4.9354035032	 3.0392500342	 0.186127
