19
gdb 118937	2.37286	1.3757	1.13144	2.4654	72.48	-0.227	0.0261	0.2531	1161.6631	0.159077	-456.343166	-456.333508	-456.332564	-456.377728	34.916	
C	 0.3593541159	 0.775762604	 0.3922118662	-0.262872
O	-0.3192752147	 0.295499922	-0.7610783288	-0.242376
C	 0.4440303089	-0.5452349359	-1.5946379079	-0.109567
C	 0.4699441798	-2.0110143168	-1.1288888355	 0.132893
N	-0.8886994373	-2.4509776996	-0.9073319093	-0.558196
C	 1.3377097855	-2.9181555236	-2.069673397	-0.193306
N	 2.2911632936	-3.0482599144	-0.9654946531	-0.323468
C	 1.5529359424	-2.3571074056	-0.0411753553	 0.3696
O	 1.6985569195	-2.162025629	 1.1395731034	-0.370719
H	 0.6306799179	-0.0319127316	 1.0806850309	 0.156073
H	 1.2720666276	 1.3215216065	 0.1096037748	 0.104965
H	-0.3245388343	 1.4689802725	 0.887768811	 0.123348
H	-0.0472820601	-0.5191514417	-2.5740369653	 0.117907
H	 1.4721024189	-0.1696561629	-1.7104797941	 0.093965
H	-0.9221306269	-3.2583253148	-0.293211141	 0.233645
H	-1.3973562761	-1.6991245532	-0.4503007654	 0.247569
H	 0.8321060071	-3.8479574345	-2.3457365372	 0.118339
H	 1.7449147113	-2.4354109932	-2.964792337	 0.110194
H	 3.1259010008	-3.6056252382	-0.8638759995	 0.252006
