14
gdb 130362	5.76599	0.96989	0.83024	7.1525	80.35	-0.2229	-0.0624	0.1604	1290.2075	0.102976	-429.071566	-429.063738	-429.062793	-429.105158	27.648	
N	-0.0445919253	 1.3653589774	 0.009709416	-0.483133
C	-0.0457865547	 0.0233753113	 0.0026976177	 0.144805
N	-1.1490296331	-0.6472881038	 0.0071371694	-0.369321
C	-1.0582929665	-2.0269225407	-0.0004870634	 0.399444
C	-2.2543123319	-2.7773338638	 0.0032033866	-0.030991
N	-2.2643427187	-4.097458113	-0.0033182258	-0.175774
N	-1.0940448517	-4.7505506437	-0.013752547	-0.207694
C	 0.0119398834	-4.0120510076	-0.0166838598	 0.100819
N	 0.1056558655	-2.6809041598	-0.0107794196	-0.324886
H	 0.8121096676	 1.8882011848	 0.0060163245	 0.277696
H	-0.9219379227	 1.8610789039	 0.0186085302	 0.277049
H	 0.9402072557	-0.4475548899	-0.0068800804	 0.142623
H	-3.2150807571	-2.2726503917	 0.0116798783	 0.124479
H	 0.9449395595	-4.5708178434	-0.0255774067	 0.124883
