19
gdb 70901	3.23466	1.48123	1.3949	1.6415	73.35	-0.2413	0.0708	0.3121	994.9156	0.160804	-423.030864	-423.02345	-423.022506	-423.061925	31.447	
O	-0.0637785993	 1.3457157874	 0.0706706302	-0.480798
C	 0.0496408067	-0.03614316	 0.0495336752	 0.412267
C	 1.0902860736	-0.7944054392	 0.8661993265	-0.314499
C	 0.6174128862	-2.2128532291	 0.4817075991	 0.375568
O	 1.3804732272	-3.2237114733	 1.0780071958	-0.496953
C	-0.8981498125	-2.1419647634	 0.8228456117	-0.275645
C	-1.1991231954	-0.8826332524	 0.0249757466	-0.099694
C	-0.2517489782	-0.8812424899	-1.1802906793	-0.141061
C	 0.6007712183	-2.1357794854	-1.0720184853	-0.275723
H	 0.6911474613	 1.7160710669	-0.3999954554	 0.280835
H	 2.1210403209	-0.6059577719	 0.5459783855	 0.090432
H	 1.0101629088	-0.6066296751	 1.9410292225	 0.105043
H	 1.0280598436	-4.0730549638	 0.7916075816	 0.27642
H	-1.4469317438	-3.0232719516	 0.4691676567	 0.084269
H	-1.0663803094	-2.0308285294	 1.8985511288	 0.102751
H	-2.1756197102	-0.4209040401	-0.0333494246	 0.091185
H	-0.5444331145	-0.4242992799	-2.1166776021	 0.084157
H	 1.6096878697	-2.0213082857	-1.4817360522	 0.096859
H	 0.1371449171	-3.0206677542	-1.5256669313	 0.084587
