16
gdb 129922	2.44496	1.82788	1.04892	3.4205	81.27	-0.1701	-0.0134	0.1566	1078.1469	0.127777	-430.259593	-430.251542	-430.250598	-430.29157	32.06	
N	 0.0468121118	 1.3675705665	-0.1199126296	-0.593033
C	 0.0014341812	-0.0122589558	-0.0039999023	 0.26562
C	-1.1452859815	-0.7486753901	 0.0667301831	-0.080036
N	-1.0903466844	-2.1000242288	 0.2431054549	-0.23719
N	 0.0417947305	-2.8111204223	 0.324990977	-0.28959
C	 1.1642811445	-2.1401751435	 0.2921775387	 0.305392
N	 2.3449876943	-2.8677450023	 0.4410228782	-0.564103
C	 1.2771460296	-0.6899590251	 0.1391018005	 0.198925
N	 2.3676859152	 0.0141473824	 0.1074482858	-0.599358
H	 0.9865511999	 1.6763302252	-0.342582098	 0.266564
H	-0.673062134	 1.7966546885	-0.6807214354	 0.239465
H	-2.1380394491	-0.3201186369	 0.0053033744	 0.115607
H	-1.9290179425	-2.6522835464	 0.2799680903	 0.27262
H	 2.1791052826	-3.8644390542	 0.3831261408	 0.250196
H	 3.0731538441	-2.5802659117	-0.2016969376	 0.245661
H	 3.1904000878	-0.5569542555	 0.2900442891	 0.20326
