17
gdb 14842	3.03188	1.61655	1.16789	2.7858	68.62	-0.2676	0.0167	0.2843	1037.8116	0.141952	-363.862718	-363.854403	-363.853459	-363.896289	29.2	
C	 0.1614922004	 1.5400437707	 0.0373258844	-0.391081
C	 0.0545505208	 0.012131059	 0.0288850412	-0.191396
C	 0.5260668889	-0.5742573114	-1.2883877747	 0.148906
O	 1.9294578175	-0.3271574043	-1.5450521903	-0.281034
C	 2.2428827943	-1.7266991302	-1.5863147557	-0.073759
C	 0.7537586759	-2.1197086943	-1.3857402526	-0.240915
C	 0.432302621	-2.9322390571	-0.2267736574	 0.286416
N	 0.1840984783	-3.5784388538	 0.6994405096	-0.329267
H	 1.1925423595	 1.8518154433	-0.1509133534	 0.140011
H	-0.4731434611	 1.9873081268	-0.7356554123	 0.115754
H	-0.1490230462	 1.9475246563	 1.003201017	 0.120149
H	 0.6489322061	-0.4141609335	 0.844792793	 0.118254
H	-0.9831392934	-0.3035173058	 0.1961145364	 0.111153
H	-0.0856951283	-0.1934389535	-2.1170431426	 0.088001
H	 2.6708346811	-2.0317065956	-2.547351116	 0.118241
H	 2.9126770993	-2.0309535515	-0.7749134006	 0.126686
H	 0.298211896	-2.5642743052	-2.272442086	 0.133881
