20
gdb 47802	2.1966	1.88583	1.23061	1.7768	78.8	-0.2278	-0.0241	0.2037	1066.9146	0.173042	-403.147021	-403.139127	-403.138182	-403.179338	31.129	
O	-0.000989591	-0.1011717778	 0.103911202	-0.308013
C	-0.0161949664	 1.104368508	 0.0049864106	 0.349358
C	-1.3065445847	 1.9076640084	-0.0230371732	-0.282467
C	-1.7222919247	 2.2642481702	 1.4259356652	-0.196555
C	-0.7053451165	 3.0909529094	 2.2317540832	-0.190277
C	 0.6625829486	 2.4166659966	 2.4274721547	-0.158182
N	 1.5520045528	 2.6579345428	 1.2832842615	-0.085773
C	 2.4011562716	 1.5474445948	 0.842847968	-0.259629
C	 1.2349122909	 1.953818957	 0.0270815247	-0.085693
H	-1.1686268484	 2.8263926584	-0.6044465541	 0.105609
H	-2.0903128231	 1.3044683552	-0.4890570645	 0.119058
H	-2.6711127748	 2.8097817919	 1.3820688647	 0.10461
H	-1.923737325	 1.3270801649	 1.9593518547	 0.116643
H	-0.544727493	 4.0686816254	 1.7611863546	 0.109729
H	-1.1405476771	 3.2867048912	 3.2182262952	 0.101851
H	 1.1655574759	 2.8397989962	 3.3034769678	 0.106119
H	 0.5175192691	 1.3420564072	 2.6313611327	 0.101003
H	 3.4071002372	 1.8188856826	 0.5356611703	 0.118284
H	 2.3156675176	 0.5966557995	 1.3652479269	 0.130152
H	 1.3702047111	 2.5711521083	-0.8609123951	 0.104171
