17
gdb 125296	3.04118	1.20104	0.94003	2.0846	75.73	-0.2412	-0.0396	0.2015	1230.7253	0.135588	-418.039307	-418.030508	-418.029563	-418.074445	30.77	
C	-0.050547188	 1.5123773856	-0.0496385742	-0.509775
C	-0.0321816654	 0.0187324503	-0.0905250028	 0.361524
C	-0.033314042	-0.8612486414	-1.1555248966	-0.301804
C	-0.0188468772	-2.1441053291	-0.5725844993	-0.000613
N	-0.0112997615	-2.0840927245	 0.7541495895	-0.273868
N	-0.0287402383	-0.7579230414	 1.0334254037	-0.016977
C	 0.0598114686	-0.3288226314	 2.408225245	-0.244536
C	 1.4983923541	-0.0396773999	 2.8331858347	 0.149448
O	 1.7965113956	 0.7915043522	 3.6475899148	-0.2268
H	 0.8136268442	 1.9255951426	 0.4828010755	 0.144709
H	-0.0341870825	 1.908112557	-1.0669485991	 0.144137
H	-0.9512804125	 1.897740766	 0.4427783916	 0.140928
H	-0.0486532621	-0.6026199757	-2.2022372524	 0.103775
H	-0.0196846974	-3.1067286902	-1.0628264477	 0.114311
H	-0.5550214494	 0.5557272251	 2.5911488949	 0.144362
H	-0.3181432214	-1.1502199146	 3.0258811275	 0.16524
H	 2.254167615	-0.6786830607	 2.325607905	 0.10594
