18
gdb 62499	2.09731	1.43351	1.18342	2.3051	74.3	-0.2518	0.0311	0.2829	1136.6613	0.143888	-439.084647	-439.074591	-439.073647	-439.118733	37.342	
C	-0.1119820778	 1.5533612919	-0.0221630674	-0.466214
C	-0.0003121292	 0.0476362205	 0.056512596	 0.355943
O	-1.1093319107	-0.6325759625	-0.4353347955	-0.443095
C	 1.3666204971	-0.644128158	-0.1990655822	-0.354634
C	 2.5531830795	 0.106311651	-0.4575333119	 0.295482
N	 3.5066075975	 0.737239278	-0.6481300243	-0.359128
C	 0.6833859218	-0.6410591004	 1.1957622882	 0.355928
C	 1.3061869935	 0.1248256229	 2.3409281505	-0.466207
O	 0.0933622351	-1.8440787783	 1.5687907371	-0.443091
H	 0.7942448056	 2.062808517	 0.3077131005	 0.146635
H	-0.2907572507	 1.8556014538	-1.061013714	 0.122482
H	-0.95586148	 1.8979083012	 0.5827565882	 0.137493
H	-1.2654061983	-0.329688412	-1.3371998222	 0.287813
H	 1.2763133669	-1.592070453	-0.7178912592	 0.13617
H	 1.8188872083	 1.0306759873	 2.0150812768	 0.146634
H	 0.538683693	 0.3924328692	 3.0731151357	 0.137492
H	 2.0517099201	-0.5039919617	 2.8422304094	 0.122483
H	 0.7571158784	-2.3670480071	 2.0328964443	 0.287814
