17
gdb 55072	3.25119	0.95228	0.87332	4.9512	72.91	-0.2356	0.0092	0.2448	1351.6405	0.13589	-455.195515	-455.186298	-455.185354	-455.230497	33.025	
N	 0.0487200324	 0.2681417778	 2.3619352485	-0.535018
C	 0.0442975938	-0.368500597	 1.1606394758	 0.44749
O	 1.0354916966	-0.3911570926	 0.4385499383	-0.403047
C	-1.2369039531	-1.0390582055	 0.7931796764	-0.174339
C	-1.6008830561	-1.0719889012	-0.688402607	-0.314807
C	-1.1616347136	-2.3313193707	-0.0246359878	 0.065799
N	 0.1021948108	-2.9203150082	-0.3209267571	-0.283163
C	 0.2809104414	-4.2666717626	-0.3321075697	 0.149023
O	-0.5926465087	-5.0949977449	-0.1689915052	-0.333766
H	 0.8961741482	 0.7240146367	 2.6578339418	 0.266155
H	-0.7565217896	 0.2986847818	 2.9610991568	 0.264521
H	-2.0490605101	-0.9653607447	 1.5090152715	 0.088905
H	-2.6453902221	-0.9536301464	-0.9527467568	 0.126159
H	-0.890184887	-0.5860330763	-1.34769586	 0.142536
H	-1.9013017118	-3.0900388449	 0.1973402464	 0.143117
H	 0.8933207397	-2.2902499839	-0.3699267248	 0.274409
H	 1.3385676791	-4.5332738273	-0.5226744373	 0.076025
