17
gdb 27769	2.05871	1.73891	0.94887	4.7048	84.92	-0.1865	-0.0195	0.167	1208.2436	0.136455	-418.058215	-418.049714	-418.04877	-418.09108	32.652	
C	-0.0059582705	 1.5318679957	 0.0057051209	-0.486901
C	-0.0062882975	 0.0282355178	-0.0166031153	 0.338386
C	-0.011639905	-0.6693536808	-1.1821520334	-0.276344
C	-0.007901957	-2.1084097215	-1.2054910954	 0.37818
N	-0.0068639892	-2.8321697661	-2.2499794245	-0.546626
O	-0.0016638323	-2.7374489776	 0.0618526677	-0.268927
C	-0.0055927991	-2.0344959142	 1.2098121122	 0.446921
N	-0.0713749747	-2.8713268378	 2.2974808952	-0.56322
C	 0.0010558351	-0.6770282604	 1.2322412683	-0.352007
H	 0.8777862362	 1.9126443365	 0.5312972055	 0.132804
H	-0.0125712291	 1.9486736273	-1.0035694467	 0.130955
H	-0.8824617372	 1.9126160336	 0.5431654538	 0.134199
H	-0.0156949318	-0.1822178209	-2.1481992605	 0.107356
H	-0.0067153116	-3.8220204421	-2.0061446912	 0.212465
H	 0.2698890277	-3.8065304203	 2.1317924653	 0.264072
H	 0.2229547386	-2.4734700696	 3.1753664096	 0.263911
H	-0.0005820124	-0.1502578798	 2.1774434786	 0.084776
