20
gdb 62599	3.3589	1.73716	1.51217	1.7366	80.32	-0.225	0.0785	0.3035	954.0421	0.171526	-365.929875	-365.922472	-365.921527	-365.961044	30.767	
C	-0.1222041429	 1.5094437935	 0.0026754491	-0.447555
C	-0.0270262563	-0.0185772248	-0.0017387502	 0.322576
C	-1.391752034	-0.6651713752	 0.20612708	-0.459912
C	 0.869726064	-0.5431195367	-1.1669312441	-0.100898
C	 1.1172546792	-2.0349676276	-0.8677761461	-0.064492
C	 2.4573086002	-1.8197096917	-0.277807546	-0.070171
C	 2.1688963851	-0.2982399864	-0.2938785045	-0.083329
C	 1.153334547	-0.5213766376	 0.8671413175	-0.033429
N	 1.2894740296	-2.0229516062	 0.6315716585	-0.157495
H	 0.8516345925	 1.986402231	-0.1466402007	 0.115034
H	-0.7876272943	 1.8573537674	-0.7952896277	 0.114212
H	-0.5291081419	 1.8721200943	 0.9532109963	 0.114749
H	-2.077220159	-0.4030213242	-0.6084661381	 0.108602
H	-1.3150206824	-1.7540804176	 0.2535886816	 0.134136
H	-1.8482465777	-0.3209755799	 1.1413937546	 0.112113
H	 0.7565981788	-0.2149947476	-2.1995660072	 0.064879
H	 0.6739220547	-2.9167528797	-1.3125484342	 0.094898
H	 3.3528813585	-2.4278790036	-0.2426583304	 0.094778
H	 2.8585215695	 0.5308378063	-0.4196870715	 0.074807
H	 1.2934080994	-0.2386934037	 1.9107004531	 0.066498
