22
gdb 120682	2.36731	0.77055	0.618	1.1792	93.24	-0.2311	0.0454	0.2765	1899.2711	0.192412	-367.171714	-367.16078	-367.159836	-367.20987	38.07	
C	 0.0622086846	 1.5012872516	-0.2630846209	-0.380713
C	 0.2293374483	-0.0151293281	-0.1406415609	-0.15932
C	 0.3473797873	-0.4880467584	 1.3140711653	-0.182722
C	 0.5279188174	-1.9828265925	 1.4214270323	-0.003374
N	 1.8753837209	-2.5041850455	 1.163594015	-0.325026
C	 1.3012785871	-2.6326519446	 2.5291276928	-0.271386
C	 1.9200819778	-1.8911783566	 3.593896293	 0.135055
C	 2.4160087367	-1.2875232909	 4.5110597084	 0.08913
C	 3.0279871729	-0.555240315	 5.6099840888	-0.500017
H	 0.916201794	 2.0286707486	 0.1761505723	 0.11635
H	-0.0183205938	 1.8115035387	-1.3096656926	 0.109438
H	-0.8395396649	 1.8448600546	 0.2564680438	 0.110993
H	-0.6213401596	-0.5177244908	-0.6209845529	 0.086578
H	 1.1249739778	-0.3375283309	-0.6849626744	 0.11089
H	 1.1976717521	 0.0038026036	 1.7979585894	 0.113219
H	-0.5499590089	-0.1957477034	 1.8763863864	 0.092107
H	-0.3088915133	-2.5713457856	 1.0430815878	 0.081298
H	 1.8301610735	-3.4063342096	 0.6967142804	 0.231422
H	 0.956181747	-3.6240351121	 2.818156138	 0.101061
H	 3.3542181195	-1.2329416142	 6.4067804805	 0.147632
H	 3.9074944312	 0.0032864456	 5.2708347331	 0.150781
H	 2.3290561024	 0.1637665656	 6.0519871047	 0.146606
