17
gdb 98370	3.1291	0.81619	0.67659	1.099	67.07	-0.2582	-0.0536	0.2046	1577.3652	0.131708	-496.113533	-496.103341	-496.102397	-496.150739	34.619	
O	 0.143239995	 1.3644409625	-0.0053126668	-0.41617
C	 0.0450064629	-0.0230660828	-0.1193981643	-0.129597
C	-1.3758951215	-0.5057773114	 0.0994738658	 0.332091
O	-2.2566267443	 0.2977174593	 0.338614802	-0.338434
C	-1.7174656598	-1.9935531263	 0.0478239108	 0.025354
O	-3.0448902259	-2.1932097525	 0.4535151126	-0.432937
C	-1.49708181	-2.5610981263	-1.3767801432	-0.304599
C	-1.8712791159	-4.0313513774	-1.4486479352	 0.154809
O	-1.1361634258	-4.8842978816	-1.8745286781	-0.234363
H	-0.748914058	 1.6786783067	 0.2048070949	 0.299362
H	 0.3872711072	-0.3612665744	-1.1102244332	 0.132218
H	 0.6893955465	-0.5337863896	 0.6162040985	 0.128906
H	-1.0372074378	-2.5160130779	 0.739325265	 0.111976
H	-3.4249327862	-1.3069217051	 0.5635041082	 0.300161
H	-2.14949605	-2.0079156433	-2.065837014	 0.133831
H	-0.4593458537	-2.4572779038	-1.7039416254	 0.12706
H	-2.8880807726	-4.2674828362	-1.0756757276	 0.110333
