18
gdb 92878	2.6857	1.42861	1.12778	5.8709	82.85	-0.2133	-0.0455	0.1678	1124.6038	0.149553	-401.97865	-401.970415	-401.969471	-402.011517	31.615	
C	-0.4075926948	 1.4913846547	 0.0045267834	-0.381491
C	 0.0010082873	 0.0037041054	-0.0068375379	-0.050761
N	 0.6480100537	-0.380180301	-1.264075569	-0.289588
C	 1.8803044162	 0.0290178908	-1.6744532796	 0.01835
C	 2.9500559559	 0.4339993162	-0.9478656072	-0.211139
C	 3.1591006719	 0.3876293681	 0.4936039444	 0.327255
O	 4.2259401074	 0.7428834396	 0.9850348862	-0.367093
C	 2.1237567214	-0.1655824992	 1.4139917698	-0.12721
C	 0.8161193746	-0.3436901958	 1.2163186784	-0.069423
H	 0.4764344011	 2.127833014	-0.0833082585	 0.145935
H	-1.0860657651	 1.7113813932	-0.8264077069	 0.109237
H	-0.9169355349	 1.7401734099	 0.9404338203	 0.125599
H	-0.9132858607	-0.5982814221	 0.0337407304	 0.094294
H	 0.0000677848	-0.5796230326	-2.008767314	 0.248874
H	 1.9941323977	-0.0089631595	-2.7558381311	 0.11553
H	 3.8267786868	 0.7495029118	-1.5017218415	 0.097753
H	 2.5402195459	-0.3964660044	 2.3909734972	 0.109335
H	 0.225898811	-0.7192514492	 2.0494527255	 0.104542
