15
gdb 28088	5.59526	0.95896	0.81865	0.9442	71.5	-0.181	0.028	0.2091	1312.2574	0.115032	-450.172602	-450.164538	-450.163594	-450.205257	30.371	
O	 0.0794742009	 1.3486303196	-0.0095642648	-0.426424
C	 0.0639968414	 0.0045932951	-0.0051400463	 0.456682
N	 0.0923595397	-0.7790556286	-1.052183301	-0.440972
C	 0.0589236904	-2.0573898284	-0.5191813295	 0.358175
N	 0.0780963852	-3.1278046666	-1.4058511346	-0.376653
C	 0.0549376574	-4.4537254855	-1.0830660701	 0.073844
N	 0.0082515011	-4.8768894044	 0.1229305223	-0.46428
C	 0.0104136889	-2.0344714725	 0.846236437	-0.181401
N	 0.0147649836	-0.669800001	 1.1625771976	-0.30606
H	 0.1153844571	 1.6160064407	-0.9361568749	 0.313326
H	 0.1176932935	-2.8665635712	-2.3767705844	 0.257168
H	 0.0808091315	-5.0868720544	-1.9776279067	 0.086964
H	-0.0014342579	-5.8938416076	 0.1320646129	 0.21773
H	-0.0242677325	-2.8172099305	 1.5776907189	 0.160336
H	-0.0129954702	-0.2608549347	 2.0800566738	 0.271564
