17
gdb 11127	7.27236	1.00471	0.93361	4.8966	68.15	-0.2413	0.0246	0.2659	1228.0225	0.141236	-400.993126	-400.984576	-400.983632	-401.027708	28.994	
C	 0.1624578403	 1.1593888025	-0.3027451174	-0.242487
O	-0.0636987425	-0.1139749224	 0.2653352219	-0.234194
C	-1.4081555732	-0.4878574846	 0.2719901266	 0.121136
C	-1.993493081	-1.0446430464	-1.0733098405	-0.210766
N	-2.2354401313	-2.3058845377	-0.3718523378	-0.043526
C	-1.6216063689	-1.8926653704	 0.888989389	-0.197424
C	-2.8196348046	-3.4723530435	-0.7169665616	 0.133299
O	-2.9330543958	-4.4299443632	 0.0213111306	-0.331205
H	 1.2334667321	 1.3591270207	-0.2301134518	 0.13698
H	-0.133107444	 1.1962796065	-1.361911318	 0.111379
H	-0.3867550795	 1.9453283746	 0.2377808238	 0.111888
H	-2.0340296009	 0.2981143729	 0.715916485	 0.080725
H	-2.8945497264	-0.5522404234	-1.4539844317	 0.116247
H	-1.2435503333	-1.1114305583	-1.8703181265	 0.119782
H	-0.6806651394	-2.4052589972	 1.1125172821	 0.134732
H	-2.2872213516	-1.9547724121	 1.7542829603	 0.127166
H	-3.19373982	-3.453741678	-1.7619841341	 0.066269
