14
gdb 124046	3.88348	1.75697	1.23131	3.7782	69.31	-0.2308	-0.0309	0.1999	930.2579	0.104929	-432.89127	-432.884959	-432.884015	-432.922166	24.174	
C	 0.015844763	 1.471540469	 0.0872898242	-0.146493
O	 1.3452144142	 2.0427381916	-0.0141120259	-0.266316
C	 2.1757397894	 1.4185599566	-0.8483454335	 0.496351
N	 3.2782208841	 1.8896426814	-1.3738347337	-0.367878
C	 3.7542879565	 0.7926908438	-2.0484678243	 0.039843
N	 3.0296086592	-0.3059301143	-1.9691267153	-0.265869
N	 1.9878961255	 0.1142417178	-1.1841191649	-0.061892
C	 0.9775805803	-0.6681944716	-0.6311811859	 0.036044
C	 0.0147492549	-0.035182049	 0.0384151123	-0.147519
H	-0.3763412592	 1.8457296772	 1.0348992614	 0.143106
H	-0.5984603905	 1.8955340718	-0.7222690914	 0.132848
H	 4.6674850207	 0.8223472652	-2.6237515412	 0.134025
H	 1.0817321183	-1.736209502	-0.7617191596	 0.149245
H	-0.7830584764	-0.5765816174	 0.528781058	 0.124506
