18
gdb 10190	2.1406	1.59104	0.96479	3.2958	69.5	-0.2511	0.0187	0.2698	1217.3125	0.152823	-381.120203	-381.110651	-381.109707	-381.155028	33.008	
C	-0.0052975028	 1.4998393741	 0.0016532252	-0.387408
C	 0.154310324	-0.0080451424	 0.065675779	-0.051436
O	 0.535322395	-0.4692869333	-1.2280555387	-0.250554
C	 0.6872612003	-1.8662305588	-1.3325206428	 0.001954
C	 0.7837869827	-2.2077725753	-2.8231247274	-0.168974
N	-0.4822193517	-1.8608414458	-3.4592123417	-0.516412
C	 1.8869221651	-2.3346516033	-0.6011954811	 0.268376
N	 2.8226347251	-2.6951089292	-0.0268688998	-0.325602
H	 0.9357997954	 1.9735798763	-0.2905908522	 0.13431
H	-0.7728727875	 1.7772890056	-0.7264249472	 0.126823
H	-0.2997305964	 1.8882281867	 0.9808468177	 0.123806
H	 0.9212072107	-0.2883231257	 0.8022854329	 0.116646
H	-0.7884466932	-0.4918313139	 0.3655593657	 0.098725
H	-0.1906781713	-2.3823125646	-0.913602332	 0.121533
H	 1.6695291688	-1.6930707074	-3.2288101073	 0.109822
H	 0.9535168414	-3.284831194	-2.9210570474	 0.12433
H	-0.6091709668	-0.8549709685	-3.4069969076	 0.240131
H	-0.4539833788	-2.1059182907	-4.4432533254	 0.23393
