17
gdb 76651	2.89176	1.13977	1.05204	2.6057	65.	-0.244	0.0074	0.2514	1208.1457	0.132915	-496.099812	-496.090239	-496.089295	-496.135196	33.895	
C	-0.3733607093	 1.3320446832	-0.0133196564	-0.485897
C	-0.1141012306	-0.1448307505	 0.1364412691	 0.445448
O	 0.7803464883	-0.6557723013	 0.7493480798	-0.330849
O	-1.0531400128	-0.8631387315	-0.5516975053	-0.264697
C	-1.0032661308	-2.2598505947	-0.3780361433	 0.029439
C	-1.7722227046	-2.839604669	 0.795070663	 0.072368
O	-2.4095737524	-1.9689044278	 1.6659891881	-0.423433
C	-2.3371001883	-2.924931344	-0.6111180652	-0.005724
O	-3.4452977919	-2.0983940635	-0.8368781212	-0.429523
H	 0.4632731053	 1.8902678763	 0.4045614667	 0.154449
H	-0.5171377278	 1.5935817968	-1.0647290804	 0.147277
H	-1.2910868353	 1.5952679267	 0.5216164774	 0.157227
H	-0.0840034856	-2.7273149626	-0.712543182	 0.119837
H	-1.3718511621	-3.7284506898	 1.2736062215	 0.10973
H	-3.2296964709	-1.7075945838	 1.2198908973	 0.291329
H	-2.3799539515	-3.87169654	-1.1418005447	 0.108691
H	-3.1158178897	-1.2707164745	-1.2088888944	 0.304328
