18
gdb 14128	3.83508	1.57469	1.33745	2.262	67.23	-0.232	0.069	0.301	964.3239	0.152625	-384.890125	-384.882032	-384.881087	-384.922629	30.501	
C	 0.0028575103	 1.5436237137	-0.0954984964	-0.410095
C	-0.0899102604	 0.0200211052	 0.0143173794	 0.002945
O	 0.3313585892	-0.618350381	-1.1872198104	-0.424351
C	 0.6621304466	-0.5085236458	 1.2132912395	 0.291119
C	 2.1093647826	-0.9699888521	 1.1932216691	-0.359917
C	 1.0273926655	-1.9095757963	 1.6345254911	 0.054609
O	 0.6841522892	-1.681271752	 3.0050716019	-0.287993
C	 0.235394967	-0.3404719744	 2.6726056588	-0.139527
H	 1.0486357622	 1.8597143946	-0.1936896978	 0.113217
H	-0.5531136852	 1.8956797307	-0.968838863	 0.125004
H	-0.407309179	 2.0301999954	 0.7955913388	 0.122527
H	-1.1457917292	-0.2620675392	 0.1200099303	 0.091506
H	 1.1644604034	-0.2149889623	-1.4541162066	 0.280965
H	 2.5035666107	-1.1721039094	 0.2024249517	 0.107934
H	 2.8295964485	-0.6004708327	 1.9185447423	 0.111809
H	 0.8223726145	-2.8839518479	 1.2071850552	 0.111534
H	 0.7363330262	 0.4304917179	 3.2704470653	 0.103174
H	-0.8513248721	-0.2573802844	 2.7995548409	 0.105539
