21
gdb 107956	2.61099	1.36524	1.31738	1.4909	83.49	-0.2615	0.074	0.3355	1123.8442	0.181869	-387.01721	-387.00848	-387.007536	-387.050353	33.932	
C	-0.0110762531	 1.4761377203	-0.0203648316	-0.522043
C	 0.0138952706	-0.0284865083	-0.0664263586	 0.303451
C	 0.5731013548	-0.9485328091	-1.1753222224	-0.317048
C	 0.0461923537	-1.924056767	-0.1081330625	-0.069202
C	 0.5069545619	-1.0035624059	 1.0694912022	-0.083485
C	-0.8759294161	-1.0474458067	 1.7459121257	-0.316711
C	-1.1873259055	-1.013738243	 0.2356221199	 0.354135
C	-2.5249651045	-1.0284791384	-0.4421289549	-0.231185
O	-3.1765918897	-2.2484001465	-0.1066166885	-0.420286
H	 1.0043064909	 1.8851022105	-0.0726241694	 0.119959
H	-0.5776919959	 1.8913935691	-0.8617106336	 0.116588
H	-0.469922756	 1.8414002234	 0.9052609929	 0.119396
H	 0.0581519777	-0.9356760489	-2.142424686	 0.08577
H	 1.6582174253	-0.9246149397	-1.3257502487	 0.085429
H	 0.0452131863	-3.0142375483	-0.1054215605	 0.073515
H	 1.499694785	-0.9978099409	 1.5238727837	 0.063348
H	-1.1379524702	-1.968914115	 2.2738514119	 0.09903
H	-1.1729471618	-0.1720446401	 2.3340883208	 0.083492
H	-3.1165406838	-0.1588159314	-0.1106473404	 0.084699
H	-2.3902480623	-0.9342768959	-1.5326890746	 0.08452
H	-4.0526838672	-2.237526498	-0.5032194456	 0.286629
