21
gdb 120526	5.77505	0.63082	0.61168	1.6186	86.29	-0.254	0.0499	0.3039	1831.2808	0.180928	-387.041062	-387.031073	-387.030128	-387.076607	36.668	
O	-0.6377187614	 1.5798635283	 0.7844013735	-0.420721
C	-0.2114447976	 0.3248901579	 0.2751712867	-0.075643
C	-1.449554726	-0.5346184885	 0.0516092857	-0.180063
C	-1.1270525998	-1.9302066106	-0.4805678224	 0.000279
C	-0.5644838572	-2.9274332169	 0.5776317556	-0.239334
C	-1.9891997547	-3.5584586293	 0.7103194181	-0.142562
C	-2.3715829437	-2.8519560994	-0.6317785662	-0.247958
C	-2.1064359282	-4.9986360023	 0.7971626649	 0.299064
C	-2.1899538913	-6.1978219966	 0.8485822756	-0.45048
H	 0.140777219	 2.1238807454	 0.9343342622	 0.285441
H	 0.3310343824	 0.4437921904	-0.6775439528	 0.08372
H	 0.474490781	-0.176305317	 0.9772279427	 0.08653
H	-2.0010510621	-0.6013588725	 0.9983889133	 0.104266
H	-2.1079568628	-0.0137612483	-0.6546005669	 0.105172
H	-0.5186195431	-1.8417927704	-1.3863533281	 0.067836
H	 0.143499868	-3.6382919993	 0.1463363902	 0.111183
H	-0.1323788361	-2.509348385	 1.490365119	 0.10326
H	-2.5279772151	-3.0958558851	 1.5435690819	 0.104237
H	-3.3507674012	-2.3675210281	-0.665879384	 0.103757
H	-2.284059675	-3.537040809	-1.4775917126	 0.110379
H	-2.2685948354	-7.2552241037	 0.9005365934	 0.191638
