19
gdb 74739	2.30728	1.84597	1.36874	2.6986	80.26	-0.2191	-0.0139	0.2052	1020.3957	0.160983	-385.929871	-385.922328	-385.921384	-385.961703	30.299	
C	 0.0048465236	 1.4882464765	 0.0782664402	-0.511766
C	-0.0691431379	 0.0006632103	-0.0082131539	 0.32973
C	-0.060136211	-0.8015751691	-1.0808724284	-0.184269
C	 0.0179627103	-2.2485152286	-0.5997370397	-0.064586
C	-0.8050524095	-2.1379039418	 0.7103150989	-0.228967
C	-0.021821502	-0.9103455654	 1.2268780307	-0.198373
C	 1.4246709583	-1.4591648103	 1.1752370991	 0.428584
O	 2.3373439005	-1.1740312289	 1.9035842518	-0.334079
C	 1.4486109903	-2.4374097054	-0.0203997094	-0.321198
H	 0.9135997418	 1.8041978793	 0.6056252392	 0.143428
H	 0.0094164941	 1.9470877474	-0.9143218922	 0.126121
H	-0.8421158584	 1.8976148973	 0.6427503592	 0.128717
H	-0.0027642176	-0.4924102349	-2.1176267973	 0.094481
H	-0.2928091208	-3.0136547168	-1.31105062	 0.067842
H	-1.8589241564	-1.9111273448	 0.5324608489	 0.104748
H	-0.7185566523	-3.0202528405	 1.3543046325	 0.097887
H	-0.2899487867	-0.4603476217	 2.1812794981	 0.075176
H	 1.6189728226	-3.4522237717	 0.3578049628	 0.121508
H	 2.2540956212	-2.1998115809	-0.7179268405	 0.125014
