23
gdb 96442	2.3395	1.55352	1.07978	1.6635	85.01	-0.2552	0.0794	0.3346	1215.7601	0.20795	-388.296851	-388.288251	-388.287307	-388.329845	34.123	
C	 0.3801926219	 1.6448353278	 0.0252267312	-0.402482
C	-0.0280797772	 0.161891035	-0.051641233	-0.015343
C	 0.5410741546	-0.4740296737	-1.3300537076	-0.178
C	 0.0182355407	-1.869121246	-1.6967194923	-0.205464
C	 0.5533723323	-3.019089399	-0.8349659218	-0.187044
C	 0.0005887323	-3.0943381952	 0.5915576366	-0.23853
C	 0.3800722362	-1.970036231	 1.5331202144	 0.049015
O	 1.6052002729	-1.2551054142	 1.3134159317	-0.259352
C	 0.3674471511	-0.5286677364	 1.245447617	 0.077839
H	 1.4697870668	 1.7451491234	 0.0836606877	 0.12658
H	 0.0391702103	 2.1922247126	-0.8588400856	 0.110749
H	-0.0474243932	 2.1326864865	 0.9072387601	 0.110055
H	-1.1272627697	 0.1219950109	-0.1051914933	 0.075628
H	 0.3097195555	 0.2074479355	-2.1575913881	 0.086468
H	 1.6342773235	-0.5054683149	-1.2506975229	 0.108942
H	-1.081240563	-1.8701460156	-1.672574275	 0.08532
H	 0.295821641	-2.0688042935	-2.7388425223	 0.092139
H	 0.3143494039	-3.9681585957	-1.3293332303	 0.088648
H	 1.6465939414	-2.9575804496	-0.7893215225	 0.111512
H	-1.0968349538	-3.1608529348	 0.5693420995	 0.100974
H	 0.3447724052	-4.0319438165	 1.0465673305	 0.102813
H	 0.225633392	-2.2313602603	 2.5836296993	 0.081597
H	 0.2109409254	 0.1115705548	 2.118502697	 0.077937
