18
gdb 99539	2.19377	1.22286	0.83799	3.2514	78.27	-0.276	0.0052	0.2811	1366.9761	0.144568	-401.924499	-401.914172	-401.913228	-401.960041	36.818	
C	 0.0603706939	 1.580754774	 0.0477073093	-0.397041
C	 0.0077798432	 0.0526497343	 0.0189351132	-0.178811
C	-1.4343872084	-0.5024712217	-0.012704971	-0.188259
C	-2.1375866168	-0.1354353938	-1.2375620785	 0.331216
C	-2.6916998447	 0.1392794262	-2.268038923	-0.450367
C	-1.4223780233	-2.0537457059	 0.1510421752	-0.020289
O	-0.7354402441	-2.4746517956	 1.312286144	-0.405258
C	-2.792629733	-2.6029375182	 0.1343065144	 0.261095
N	-3.8623511667	-3.0359018432	 0.1905094158	-0.316143
H	 1.0967339218	 1.9301186591	 0.0617792642	 0.120369
H	-0.4312723109	 2.0101875813	-0.8298885187	 0.134635
H	-0.437100017	 1.9783706915	 0.9393246689	 0.116112
H	 0.5433372741	-0.3245707976	-0.8605060015	 0.108838
H	 0.5056826181	-0.3647580603	 0.898533319	 0.118145
H	-1.9857516844	-0.09377769	 0.8471127576	 0.110721
H	-3.2002857998	 0.3846839171	-3.1677838354	 0.206693
H	-0.8707690145	-2.4818489768	-0.6925290662	 0.150013
H	-1.2740172575	-2.2571299103	 2.0822627628	 0.298331
