18
gdb 88717	2.54403	1.38602	1.10178	5.2344	77.17	-0.2253	0.0089	0.2342	1143.7471	0.14769	-398.069115	-398.060327	-398.059383	-398.102958	32.265	
C	-0.7904988622	 0.900752894	 0.2407664048	-0.331211
N	 0.1241893627	-0.2311092608	 0.1251157014	-0.080167
C	 1.5120033389	 0.0104497134	-0.2157012211	-0.248518
C	 1.1386215517	-0.5810873945	 1.1078841629	-0.008982
C	 1.5148222252	 0.123829018	 2.3802506623	-0.025534
N	 1.0652180009	 1.4789140764	 2.6740608986	-0.317411
C	 0.6053959917	 0.3814520205	 3.5494976498	-0.203851
C	-0.8015648812	 0.0654993077	 3.5382655301	 0.348551
N	-1.9227625661	-0.2152055547	 3.5646635781	-0.337848
H	-0.3334782554	 1.8130837105	 0.639750208	 0.127287
H	-1.1831919389	 1.1045255931	-0.7607008402	 0.11597
H	-1.6282867992	 0.6200969651	 0.8833943614	 0.148583
H	 1.9431365506	-0.605673839	-1.0017270196	 0.114241
H	 1.8647303392	 1.0424996831	-0.1951132986	 0.107943
H	 1.2479467126	-1.6600775132	 1.2267802491	 0.101826
H	 2.5281212618	-0.1386559838	 2.6899988519	 0.105459
H	 1.7845565932	 2.0184601622	 3.1474214922	 0.249377
H	 1.0523035544	 0.2943653121	 4.5366142488	 0.134284
