18
gdb 46689	2.78154	1.9932	1.42595	3.9872	74.54	-0.2328	0.007	0.2398	928.4579	0.150911	-401.938307	-401.931605	-401.930661	-401.969224	27.556	
O	 0.1427428597	 0.2066708922	 0.5981392477	-0.331092
C	 0.0251863577	 1.278064146	 0.0494880888	 0.354245
C	-1.2666497501	 2.0718693445	-0.0004606278	-0.302038
C	-0.9861522614	 3.3673896378	 0.8125657686	-0.25594
C	 0.1785976832	 4.1196699335	 0.1678687175	-0.02527
C	 1.6830303771	 3.9004596317	 0.3650120316	-0.094343
C	 2.0552346452	 2.455091228	 0.7013883355	-0.189914
N	 1.151705109	 1.9935127782	-0.406310712	-0.107602
C	 0.9669151229	 3.3865131179	-0.8678737763	-0.061867
H	-1.5380909658	 2.3463188124	-1.0253499086	 0.11834
H	-2.067263342	 1.4704363163	 0.4313489233	 0.122211
H	-1.8767871781	 4.0023927152	 0.8160407683	 0.110032
H	-0.7847468092	 3.1078442645	 1.8577609977	 0.119765
H	-0.0197852497	 5.1584263615	-0.0833580333	 0.097161
H	 2.3516230421	 4.7486476136	 0.440307442	 0.098369
H	 3.1026178715	 2.2293266988	 0.4826634868	 0.123175
H	 1.7951791124	 2.051229078	 1.6843887424	 0.124655
H	 1.0686697455	 3.6377768298	-1.9164507621	 0.100113
