23
gdb 96453	2.0447	1.81797	1.2293	1.1515	84.51	-0.2388	0.0806	0.3194	1133.3874	0.208302	-388.282393	-388.274055	-388.27311	-388.314637	34.178	
C	-0.1760225517	 1.5401484454	-0.0400281944	-0.428714
C	-0.0084923989	 0.0172376812	 0.0039544495	 0.118967
O	 0.4783568292	-0.5415335076	-1.221950286	-0.2639
C	 1.6618159518	-0.0064246709	-1.7888018149	-0.066352
C	 2.9722124886	-0.3495483113	-1.0681356009	-0.187422
C	 3.0996550701	 0.2685366164	 0.3330972577	-0.234467
C	 2.2453994104	-0.4488719927	 1.3633198896	 0.015119
C	 1.3464501931	 0.2872091133	 2.3226297518	-0.32158
C	 0.7449386604	-0.5463427212	 1.2113752637	-0.022967
H	 0.7660967873	 2.093055954	-0.014755377	 0.120892
H	-0.7109466576	 1.8227837988	-0.9517002094	 0.122237
H	-0.770081521	 1.8638692355	 0.819279407	 0.121527
H	-1.0230971616	-0.3944793866	 0.0576515409	 0.082942
H	 1.6931334912	-0.4237960576	-2.8014780507	 0.101376
H	 1.5858445452	 1.0863491301	-1.8993385312	 0.083399
H	 3.0720013261	-1.4401054453	-1.0037321028	 0.100121
H	 3.7919363392	 0.0068632184	-1.706630785	 0.086993
H	 4.1464938399	 0.2386868305	 0.6589756279	 0.094944
H	 2.8370164824	 1.3323229921	 0.2835802583	 0.094352
H	 2.7113808283	-1.3519453006	 1.7502846248	 0.081315
H	 1.2517469525	-0.0695974651	 3.342777633	 0.107202
H	 1.3044532548	 1.3675786753	 2.2310283297	 0.109475
H	 0.3365091202	-1.5009095119	 1.5309490284	 0.084538
