19
gdb 39041	2.46269	2.16977	1.4536	1.8132	79.55	-0.2192	-0.0005	0.2186	942.795	0.16163	-385.835644	-385.828829	-385.827885	-385.866244	29.193	
C	-0.1241756557	 1.537953045	 0.0785968924	-0.444915
C	 1.2203085349	 0.8077818614	-0.0313682132	-0.001887
C	 2.3342976848	 0.4255848906	 0.9208754291	-0.321042
C	 2.6400279926	-1.0493277569	 0.6589397229	-0.059357
C	 1.7693831522	-2.0086550853	 0.3023192086	-0.046194
C	 0.2504954528	-1.9035053229	 0.2108623363	 0.040894
C	-0.2862209577	-0.9115214984	 1.2589126055	-0.301828
C	-0.0463918643	 0.0499622099	 0.1066972307	 0.427048
O	-0.2509267469	-1.0050713274	-0.8549478921	-0.322005
H	-0.4329433388	 2.0062063995	 1.010045833	 0.116826
H	-0.4431571778	 2.0682798931	-0.8123751533	 0.127714
H	 1.5547602753	 0.7877499286	-1.0664047149	 0.102807
H	 3.2412991352	 1.0210955413	 0.7671802408	 0.102823
H	 2.0481072186	 0.5807805801	 1.969665428	 0.114534
H	 3.688571058	-1.3330282659	 0.7328917834	 0.090202
H	 2.1723390002	-3.0011516113	 0.1144163231	 0.088178
H	-0.2151504686	-2.8863584835	 0.1171816101	 0.07428
H	-1.3537210178	-1.0482982826	 1.4490236098	 0.106567
H	 0.2611052732	-0.7912730551	 2.19426359	 0.105353
