16
gdb 69763	3.00638	1.52843	1.28234	1.9672	68.47	-0.2322	-0.0349	0.1974	993.2268	0.123428	-437.815909	-437.808494	-437.80755	-437.847648	29.284	
O	-0.0822157915	 1.450708095	 0.0707992846	-0.456061
C	 0.0003688125	 0.0778308528	 0.0246800293	 0.384244
C	-0.253840573	-0.738972302	-1.2118640615	-0.382773
C	-1.1195187165	-0.9456060468	 0.0201056483	-0.061233
N	-0.4941869264	-1.7350904946	 1.110417751	-0.12045
C	 0.3918498376	-2.8782535072	 0.7108242552	-0.313168
C	 1.6125867832	-1.9278888441	 0.7392468275	 0.38298
O	 2.7864962974	-2.0460229609	 0.5562298144	-0.284316
C	 0.6670773694	-0.7708265051	 1.1323394371	-0.192461
H	 0.5942094275	 1.8189069557	-0.50853833	 0.294292
H	-0.7680863148	-0.1830003732	-1.9900294594	 0.125956
H	 0.4469285152	-1.480179383	-1.5843820683	 0.123423
H	-2.1954123147	-0.8213038871	-0.0121948652	 0.110578
H	 0.4305653123	-3.6545395276	 1.48202756	 0.140216
H	 0.1708415412	-3.3497031739	-0.2516455919	 0.13603
H	 0.8627631305	-0.2352562782	 2.0647486388	 0.112742
