21
gdb 63751	3.6591	1.11705	1.00999	1.0653	78.86	-0.2362	0.0768	0.313	1257.8062	0.18086	-424.203723	-424.194607	-424.193663	-424.237439	35.26	
C	-0.2047279671	 1.5404199363	-0.0779754402	-0.457227
C	-0.0862205795	 0.0229065226	 0.0071939605	 0.415747
O	-1.3563253088	-0.6017556559	-0.0040940022	-0.480893
C	 0.9906728935	-0.5720630911	-0.9594722654	-0.340098
C	 1.97512303	-0.6218109551	 0.2304325314	 0.457916
C	 3.1180536043	-1.6384623728	 0.3914171424	-0.362456
C	 4.0359426292	-0.4023425934	 0.4206492712	-0.071149
O	 2.9106553243	 0.4872685739	 0.2704186922	-0.322795
C	 0.7779771042	-0.4730281153	 1.1954457199	-0.316409
H	 0.7802346982	 2.0116256345	-0.0193319071	 0.146814
H	-0.6635382808	 1.8398762589	-1.0293903881	 0.100566
H	-0.8268870852	 1.9187810657	 0.7394503321	 0.119323
H	-1.8707027266	-0.2208308462	-0.7240808611	 0.272281
H	 0.6972623225	-1.5753875194	-1.281442047	 0.10156
H	 1.3064701694	 0.0242563758	-1.8196206074	 0.098574
H	 3.086429284	-2.2239666826	 1.3126194823	 0.111173
H	 3.2591323849	-2.3111614686	-0.45707663	 0.11028
H	 4.5731031683	-0.2265345983	 1.3605079811	 0.102157
H	 4.7429999427	-0.3113015002	-0.4128452584	 0.101535
H	 0.9182645346	 0.1998596633	 2.044697574	 0.10409
H	 0.4167677778	-1.445051452	 1.5427071	 0.109011
