22
gdb 96449	2.14317	1.83729	1.26498	0.8236	82.04	-0.2158	0.089	0.3048	1093.2668	0.196156	-404.318747	-404.310484	-404.30954	-404.350972	33.314	
C	-0.2102359779	 1.5587133699	-0.0087011008	-0.404561
C	-0.0367752406	 0.0341122542	-0.0085175087	 0.038514
C	 0.4359679508	-0.4901535659	-1.3743613693	-0.07661
O	 1.5638887914	 0.1775173484	-1.9113282462	-0.243665
C	 2.819918278	-0.1977083304	-1.3762485626	-0.066225
C	 3.0459475443	 0.3039954386	 0.0550560586	-0.239487
C	 2.245102022	-0.4742985811	 1.0842292833	 0.010846
C	 1.4183135424	 0.2109835069	 2.1206035396	-0.26297
N	 0.7881740585	-0.5597191021	 1.0599108077	-0.092676
H	 0.7147154391	 2.0847889909	-0.2536993741	 0.127827
H	-0.9528633737	 1.8378811851	-0.7636700983	 0.114718
H	-0.5742773725	 1.9124049528	 0.9599335731	 0.11657
H	-1.0380185871	-0.3972314132	 0.1397924288	 0.081039
H	 0.6276146836	-1.5714933625	-1.2947321358	 0.095496
H	-0.3663770329	-0.3397143577	-2.1049319928	 0.102299
H	 2.9403351938	-1.2938106792	-1.4143633678	 0.087515
H	 3.563997694	 0.2428940601	-2.0480463608	 0.102999
H	 4.111686722	 0.2039165153	 0.2992467532	 0.099174
H	 2.8154035027	 1.3736703205	 0.0870907028	 0.107904
H	 2.7085051905	-1.4254513265	 1.3512815662	 0.083896
H	 1.3203407253	-0.1946425604	 3.1257145296	 0.108919
H	 1.3903582065	 1.2979316064	 2.0730318641	 0.108477
