20
gdb 99375	5.93572	0.57566	0.55408	3.7207	78.31	-0.247	-0.0248	0.2222	1998.0885	0.168343	-440.333607	-440.322745	-440.3218	-440.371998	36.613	
C	-0.1048536873	 1.4382522458	 0.1834531709	-0.367599
C	-0.0782370553	-0.0639597976	-0.1022786859	-0.298844
C	-1.4791014209	-0.670416083	-0.1120022512	 0.422999
O	-2.3955721233	-0.2348870094	 0.5651157856	-0.382135
N	-1.640490247	-1.7553964093	-0.9269356114	-0.314058
C	-2.8910864624	-2.4915033796	-0.9663016767	-0.170795
C	-3.0664276225	-3.4507978362	 0.2305870258	-0.269944
C	-4.4340152922	-4.0914827057	 0.233227261	 0.155882
O	-4.640552596	-5.2772945809	 0.192713214	-0.236969
H	 0.9091896251	 1.8276780377	 0.3075568756	 0.110552
H	-0.5836665584	 1.9860638209	-0.6336096531	 0.123487
H	-0.6758743345	 1.6351698519	 1.0928382255	 0.146577
H	 0.4354455195	-0.2783649742	-1.0467365271	 0.100441
H	 0.4889596361	-0.582726883	 0.6823282291	 0.129948
H	-0.8414996321	-2.1304127971	-1.41051879	 0.247764
H	-3.7044635582	-1.7599429159	-0.9656486458	 0.142949
H	-2.93295761	-3.0457817715	-1.9083717344	 0.117972
H	-2.3047655948	-4.2352880124	 0.2311823985	 0.113841
H	-2.9706773449	-2.851031257	 1.1445811001	 0.147884
H	-5.2793665809	-3.3649446234	 0.2706967597	 0.080048
