25
gdb 102165	2.15836	1.05374	0.79879	0.7393	94.76	-0.2565	0.0565	0.313	1562.7472	0.225957	-352.334583	-352.32305	-352.322106	-352.371504	42.635	
C	-1.3459144233	-0.8490109861	-0.2848784223	-0.381644
C	-0.0363953736	-0.0970222551	-0.0138634859	-0.203407
C	 0.6830649568	-0.4483495389	 1.3080164125	 0.038174
C	-0.1513829528	 0.0076045311	 2.5379449407	-0.382576
C	-0.5065780765	 1.4219798062	 2.5236784035	 0.304324
C	-0.7845294257	 2.5920271758	 2.5132592991	-0.444001
C	 1.0857211936	-1.942452839	 1.429014438	 0.044845
C	 1.8717407548	-2.4274478669	 0.1996421489	-0.405196
C	 1.9101308711	-2.2291365252	 2.6961692896	-0.400526
H	-2.0928527447	-0.6625371498	 0.4934719134	 0.1194
H	-1.78191178	-0.5222510325	-1.2340597432	 0.113348
H	-1.196255797	-1.9316537662	-0.3495395034	 0.114939
H	 0.6533646716	-0.2623255401	-0.8477247549	 0.094474
H	-0.2416181009	 0.9785132282	-0.004153783	 0.112135
H	 1.612654363	 0.1386504478	 1.3243469215	 0.075771
H	-1.0661627414	-0.5960416817	 2.6053374293	 0.12659
H	 0.4084532054	-0.1933636079	 3.4566733546	 0.130424
H	-1.0364512701	 3.6233254014	 2.5105727572	 0.191214
H	 0.1634915663	-2.5372910558	 1.4938699196	 0.072824
H	 1.284197276	-2.3800623134	-0.720369253	 0.118415
H	 2.7764293247	-1.8254264595	 0.0504544448	 0.112399
H	 2.1877136974	-3.4670064499	 0.3343484821	 0.109048
H	 1.3496256768	-2.053290285	 3.617885512	 0.115231
H	 2.2335265285	-3.2749851808	 2.7120455112	 0.110243
H	 2.8120831001	-1.6056037169	 2.7275602679	 0.113551
