18
gdb 38495	3.41719	1.68292	1.58758	1.8726	73.07	-0.2154	0.0475	0.2629	908.3482	0.149822	-401.857252	-401.850676	-401.849732	-401.887738	27.802	
C	 0.0291268825	 1.5331098394	-0.0162818604	-0.254367
C	 1.2692479387	 0.7196652932	 0.0270973141	-0.095272
N	-0.086470687	 0.0692252733	 0.0266397025	-0.1016
C	-0.2785015218	-0.5714828311	-1.3122981352	-0.261174
C	 1.0083776816	-0.3882034088	-2.0998883708	 0.371309
C	 1.5540870816	 0.901616405	-2.6137894154	-0.383846
C	 1.9886137685	 0.3902404836	-1.2469692407	 0.137094
C	 2.8815523351	-0.8420966105	-1.4331995853	-0.135965
O	 1.9182222781	-1.4783162762	-2.3241761819	-0.318044
H	-0.3140698176	 2.042235575	 0.8811575943	 0.118762
H	-0.2283375866	 2.0552849259	-0.9344535844	 0.11012
H	 1.8273702245	 0.6446601239	 0.9558370821	 0.095469
H	-0.440881479	-1.6414512926	-1.1583700285	 0.131153
H	-1.1658805972	-0.1574811633	-1.8011873794	 0.112643
H	 2.2691118262	 0.8684003966	-3.4311071537	 0.124513
H	 0.8939234163	 1.7597599463	-2.6283048639	 0.126592
H	 3.8539512683	-0.6964217717	-1.9178002219	 0.108128
H	 3.0091819576	-1.4257573681	-0.5143468314	 0.114484
