14
gdb 5513	3.46591	1.98415	1.27194	6.359	68.72	-0.2412	-0.0571	0.184	897.8726	0.108213	-378.764061	-378.756831	-378.755887	-378.79589	25.435	
C	-0.0278641818	 1.4504924608	 0.0356434485	-0.349486
N	-0.0085342135	-0.0054778309	 0.0166056916	-0.024693
C	-0.029430593	-0.7787549056	-1.106744173	-0.116817
C	 0.0014991908	-2.0888084499	-0.6707629496	-0.087549
N	 0.0401825004	-2.1370770207	 0.683376072	-0.270462
C	 0.0337849665	-0.8734000192	 1.0906102424	 0.232053
C	 0.0668451725	-0.4113102933	 2.4790644069	 0.083283
O	 0.1041295041	-1.1324453459	 3.4475240436	-0.254598
H	 0.8737214756	 1.8485182398	 0.5082479632	 0.158881
H	-0.0690494757	 1.8112212382	-0.9928336132	 0.150927
H	-0.9048555692	 1.8236620181	 0.5705078943	 0.158998
H	-0.0635404736	-0.340850253	-2.0915436095	 0.138889
H	-0.0028040974	-2.9848321647	-1.2732222763	 0.12049
H	 0.0548011942	 0.6964017563	 2.591672049	 0.060083
