20
gdb 97413	4.89652	0.76281	0.71996	2.8671	85.7	-0.243	0.0219	0.2649	1639.8457	0.170333	-403.155927	-403.146742	-403.145798	-403.19118	33.131	
C	-0.0369050094	 1.3644106801	-0.1099472543	-0.313824
N	 0.0274612678	-0.074318804	 0.0324344979	-0.208182
C	-1.0616175654	-0.704020879	 0.0269884214	 0.128928
O	-1.0910570374	-2.0387804911	 0.2028475556	-0.214997
C	-2.352825754	-2.6892223097	-0.0094807065	 0.10711
C	-2.5510452249	-3.0320655373	-1.509104876	-0.269129
C	-2.1528298209	-4.4855089355	-1.5931928742	-0.052291
C	-2.0122893556	-5.0347997221	-0.3887786027	-0.052488
C	-2.2865689517	-4.0489415267	 0.7203301089	-0.274381
H	 0.5545280691	 1.675552172	-0.9788292863	 0.125759
H	-1.0596652897	 1.7599952319	-0.2293266424	 0.092797
H	 0.413691728	 1.8433942787	 0.767210492	 0.12655
H	-2.0535701673	-0.2377383108	-0.09431596	 0.068729
H	-3.1491970341	-2.0443110404	 0.3785262856	 0.079249
H	-3.5968005062	-2.8866682694	-1.813304737	 0.107647
H	-1.9445474477	-2.3754135639	-2.1425170799	 0.119721
H	-2.0243883524	-5.0001091849	-2.5384411867	 0.095725
H	-1.7537051902	-6.0694463844	-0.1955168046	 0.095634
H	-1.5078783601	-4.0224033606	 1.4890137029	 0.128881
H	-3.233046808	-4.2726072429	 1.2300003562	 0.108563
