16
gdb 42427	4.61953	0.85753	0.78217	4.5666	71.85	-0.3126	-0.0674	0.2452	1432.739	0.123807	-437.908048	-437.899499	-437.898555	-437.94264	30.076	
O	 0.1344542534	-0.0980273233	-0.5771842104	-0.334717
C	 0.01382236	 0.9894759189	-0.0816816949	 0.355509
O	 0.9859074825	 1.8225849914	 0.28042525	-0.235199
C	 2.3355972052	 1.3575989533	 0.0554919939	 0.15799
C	 2.9311467909	 1.534247068	-1.3565689668	-0.240386
C	 4.2395920758	 2.0185143225	-0.6668088037	-0.22276
C	 3.4117115676	 2.2944251842	 0.6226359078	-0.257397
C	-1.2959377481	 1.5878885902	 0.2135103483	 0.251671
N	-2.3495987116	 2.0113039284	 0.423303784	-0.306108
H	 2.4088302873	 0.3295979309	 0.4150001588	 0.116702
H	 2.9658569376	 0.6550018499	-2.0005705112	 0.12294
H	 2.4302030502	 2.3510937358	-1.8832200376	 0.119962
H	 4.9554270269	 1.2047740785	-0.5289764405	 0.116928
H	 4.7562510516	 2.8667741226	-1.1170118542	 0.115434
H	 3.0434651874	 3.3231757833	 0.6499759464	 0.125845
H	 3.8452081134	 2.0419696654	 1.5917045598	 0.113588
