16
gdb 14119	3.93519	1.7659	1.47582	2.4864	64.8	-0.2405	0.0173	0.2578	875.0989	0.131884	-379.910993	-379.903698	-379.902753	-379.942597	27.811	
N	-0.1487494657	 1.2960163802	 0.2467923239	-0.537458
C	 0.0498285998	-0.0281251908	-0.0292059598	 0.286729
O	 1.1344310573	-0.5314054603	-0.2523725515	-0.36174
C	-1.2134619524	-0.828647539	-0.0667136875	 0.266803
C	-2.3895931547	-0.4585394051	-0.8914014539	-0.258509
N	-2.5138591588	-0.3381854624	 0.5665878412	-0.183967
C	-2.7225389592	-1.7463337151	 1.0741497659	-0.153567
C	-1.3681356515	-2.2378776667	 0.4939097812	-0.312564
H	 0.670602138	 1.86105269	 0.4036228054	 0.259926
H	-1.0108670544	 1.5615475256	 0.6991787642	 0.271725
H	-2.3619480629	 0.4992692832	-1.4005359784	 0.131537
H	-2.9413851568	-1.2407187599	-1.4103030942	 0.118471
H	-2.7634631717	-1.7437335415	 2.1643513026	 0.118877
H	-3.6328682552	-2.2104266445	 0.6819371775	 0.110582
H	-1.3860224505	-3.0505601937	-0.2360747898	 0.112806
H	-0.6296652512	-2.4705893901	 1.2616387234	 0.130349
