12
gdb 25424	4.60721	1.00089	0.82226	6.9483	73.31	-0.2636	-0.0636	0.1999	1259.43	0.079018	-431.723627	-431.716314	-431.71537	-431.755943	25.981	
O	-0.1015113734	-0.013615469	-0.0002409494	-0.248558
C	-0.0067503399	 1.18762516	 0.0087008336	 0.079319
C	 1.2558610641	 1.9410813063	 0.0009620193	 0.163638
C	 1.3724519169	 3.3213175264	 0.0111199864	-0.123904
N	 2.7061478877	 3.5781974363	-0.0010422737	-0.288843
C	 3.3502196886	 2.3592779365	-0.0189464614	 0.264886
N	 2.4997789633	 1.3594514409	-0.0177544914	-0.308582
C	 4.7684206964	 2.2726433269	-0.0353946844	 0.248722
N	 5.9251874565	 2.2540540432	-0.0483085155	-0.320179
H	-0.9066871223	 1.8441018956	 0.0241694832	 0.070839
H	 0.6352041266	 4.1076777158	 0.0258505602	 0.168406
H	 3.1492598454	 4.4839653809	 0.0019568131	 0.294256
