12
gdb 5201	7.65736	1.18729	1.06009	3.2382	57.51	-0.2434	-0.0083	0.2351	1015.4465	0.083865	-418.51239	-418.505766	-418.504822	-418.54399	23.417	
O	-0.0296128663	-0.033599343	 0.049273627	-0.253286
C	 0.0751442813	 1.1324028655	-0.1610773131	 0.155477
O	 0.937016399	 1.9206822688	 0.5451164344	-0.215842
C	 0.9138408718	 3.2714003751	 0.3017764494	 0.293965
C	-0.1546295155	 4.1148378339	 0.3478658377	-0.108194
O	 0.2616510645	 5.3787771608	 0.0717600902	-0.133054
C	 1.6020784727	 5.3282452819	-0.1402187546	 0.024904
C	 2.0652238809	 4.0583458449	-0.0151663964	-0.294359
H	-0.4807942564	 1.7095045309	-0.9215264782	 0.095802
H	-1.1995571412	 3.9838815838	 0.5703914641	 0.151813
H	 2.0747813603	 6.2689763945	-0.3680349963	 0.149226
H	 3.078697639	 3.709549263	-0.1270195041	 0.133548
