23
gdb 61914	3.46187	0.70944	0.61998	0.872	92.45	-0.2554	0.0591	0.3145	1839.923	0.203524	-351.115932	-351.105384	-351.10444	-351.152141	39.019	
C	-0.1890911485	 1.4234851072	 0.1429026528	-0.397391
C	 0.0378142259	-0.0872359959	-0.0219386004	 0.011512
C	 0.7634460479	-0.4411595411	-1.333411795	-0.171462
C	-0.0346218449	-0.1029907265	-2.6105685703	-0.370547
C	 0.6449491519	-0.530305976	-3.8276684937	 0.29475
C	 1.2267526519	-0.8912859738	-4.8158312583	-0.436959
C	 0.8029471459	-0.6441238758	 1.1673433002	 0.03773
C	 0.0862789136	-0.9900235873	 2.4472232307	-0.278282
C	 0.6496684456	-2.087006752	 1.5748179324	-0.275064
H	 0.7656016982	 1.9628987841	 0.1357051467	 0.11312
H	-0.8121931785	 1.8389607885	-0.6547304885	 0.112683
H	-0.6838119742	 1.6370314416	 1.0952457347	 0.117139
H	-0.9461141225	-0.5808978198	-0.0389668055	 0.063978
H	 1.7302591864	 0.076620877	-1.3709587905	 0.103504
H	 0.9876937949	-1.5131206263	-1.3387427725	 0.110626
H	-1.0227320268	-0.5802943848	-2.5585736029	 0.126128
H	-0.2223873758	 0.975931252	-2.6659330648	 0.131551
H	 1.7311314496	-1.2059748231	-5.6952410864	 0.191262
H	 1.8001264401	-0.2233807809	 1.2835457907	 0.078061
H	 0.5748432661	-0.7787077679	 3.3920400639	 0.109815
H	-0.9922493277	-0.8689728936	 2.4701281766	 0.108435
H	-0.053520186	-2.6973899447	 1.0168502518	 0.108791
H	 1.5237811669	-2.626255771	 1.9226766083	 0.110621
