18
gdb 55053	3.94632	0.85969	0.7954	3.9214	79.66	-0.2465	0.0225	0.269	1454.4977	0.145724	-401.941144	-401.931171	-401.930227	-401.977501	35.51	
N	-0.0182345226	 1.2780176105	 0.347302051	-0.536423
C	 0.0304300948	 0.0578452201	-0.2623611165	 0.426898
O	 1.0331356483	-0.33235492	-0.8397514325	-0.379149
C	-1.2314958872	-0.7417138836	-0.1633843208	-0.153789
C	-1.5085059491	-1.7637176208	-1.2507544434	-0.273082
C	-1.1806871359	-2.241040256	 0.1248780866	 0.005618
C	 0.1259403488	-2.9651778684	 0.4248109191	-0.391499
C	 0.017512045	-4.4001217365	 0.181412842	 0.306194
C	-0.0923422822	-5.5805766522	-0.0173465857	-0.451679
H	 0.8008355907	 1.8616572333	 0.3081412504	 0.261846
H	-0.834202202	 1.6146434135	 0.8257774828	 0.258888
H	-2.0868090391	-0.2182800221	 0.2527849381	 0.078422
H	-2.5243158796	-1.8527561647	-1.6178911587	 0.114544
H	-0.729664567	-1.8506404677	-2.0005609583	 0.145151
H	-2.0195054748	-2.5978477976	 0.7157724505	 0.100286
H	 0.9260172103	-2.5327752071	-0.1831794427	 0.172439
H	 0.4082264504	-2.7962334833	 1.4726052111	 0.124402
H	-0.1745908285	-6.6234324075	-0.1979659929	 0.190932
