21
gdb 122110	1.96442	0.9657	0.73106	2.186	76.66	-0.2498	-0.035	0.2148	1614.4933	0.178819	-461.360322	-461.34933	-461.348385	-461.398245	37.787	
C	-0.1245276513	 1.5246183805	 0.0077645194	-0.389696
C	 0.0609871919	 0.0059506755	-0.0196818859	-0.194219
C	 0.8089168884	-0.4782210303	-1.269901566	 0.047907
O	 2.1068676894	 0.0846720269	-1.2623991326	-0.270482
C	 2.7871150984	 0.0182048158	-2.5100409079	-0.083641
C	 4.2103088711	 0.4877982007	-2.255386126	-0.062265
O	 4.8651154783	-0.3364378299	-1.3124823182	-0.418976
C	 0.8866646056	-2.0037587061	-1.2532112895	 0.132685
O	-0.0175712276	-2.7302618929	-1.569753904	-0.243803
H	 0.8412418383	 2.0334689679	-0.037341315	 0.133347
H	-0.7262512302	 1.8631703955	-0.8426716123	 0.117359
H	-0.6348407014	 1.8353767392	 0.9239755525	 0.118923
H	 0.6186840762	-0.3215332586	 0.8666225003	 0.107475
H	-0.9067314867	-0.5058756217	 0.0032183663	 0.12381
H	 0.2534527237	-0.1695910264	-2.1692246379	 0.093431
H	 2.7990596162	-1.014239694	-2.8914279625	 0.105433
H	 2.286945481	 0.6552857975	-3.2562799969	 0.097279
H	 4.786105344	 0.4380855498	-3.1850552133	 0.113532
H	 4.1869204821	 1.5391889662	-1.9273399761	 0.096358
H	 4.2823443352	-0.3729677254	-0.5452941394	 0.288053
H	 1.8616154273	-2.3932589101	-0.8763236851	 0.087488
