15
gdb 62348	4.14057	1.14032	1.09751	2.8183	75.23	-0.2364	-0.0052	0.2312	1115.7419	0.111009	-416.724968	-416.716649	-416.715704	-416.757746	31.546	
N	-0.1498722052	 1.441397445	-0.2117717285	-0.572257
C	-0.0807702469	 0.0110084317	-0.057928365	 0.094807
C	 0.99179178	-0.606012451	-0.797118239	 0.300125
C	 1.9027981611	-1.1219007169	-1.3873924413	-0.419039
C	-0.4668473397	-0.7380674051	 1.2001625913	 0.026277
O	-1.4756668724	 0.0173782348	 1.9109661624	-0.280638
C	-2.3683087317	-0.1673295669	 0.8426462731	 0.421914
N	-3.5810549887	 0.1227730839	 0.7454481849	-0.546111
C	-1.3629495721	-0.8559093432	-0.0181545819	-0.223232
H	-0.8124115027	 1.8247930809	 0.4564690938	 0.250349
H	 0.7577893263	 1.8431378703	 0.005570005	 0.239088
H	 2.7037525111	-1.5720717002	-1.920518219	 0.204351
H	 0.1112293139	-1.4608972023	 1.7598226825	 0.132604
H	-3.9293743302	 0.5685333052	 1.5958115598	 0.235288
H	-1.5442805928	-1.6563153562	-0.7190930981	 0.136475
