19
gdb 88112	3.39031	1.2914	1.08788	1.6973	76.84	-0.2379	0.0265	0.2644	1145.6617	0.159281	-423.008175	-422.999974	-422.99903	-423.040667	32.252	
O	 0.0039251133	 1.367844137	-0.0910115178	-0.423536
C	-0.0139006152	-0.0272806666	-0.0110180804	 0.01783
C	-0.4767596491	-0.7126160872	 1.2633606932	-0.391851
C	-1.3504466005	-0.679995787	 0.0185999557	 0.416525
C	-2.6283684116	 0.1343406376	-0.0050410792	-0.298829
C	-3.8109434022	-0.7747105176	 0.2082071196	-0.067321
C	-3.7003279598	-2.0983364055	 0.1322266236	-0.065739
C	-2.3986445654	-2.7668189536	-0.212456033	-0.129542
O	-1.4341149953	-1.8621380826	-0.7309656113	-0.294377
H	 0.7334823057	 1.6864207047	 0.4504667758	 0.289329
H	 0.7509360289	-0.5423323612	-0.5916960799	 0.09763
H	-0.0015312511	-1.6513820597	 1.5265115795	 0.114381
H	-0.7636360243	-0.0814881021	 2.098105744	 0.112429
H	-2.5951537531	 0.9153426823	 0.7606779078	 0.112265
H	-2.7188961336	 0.6607046929	-0.965600585	 0.122032
H	-4.7686776125	-0.3115957365	 0.429967266	 0.088269
H	-4.5500678574	-2.7504326738	 0.3156226704	 0.089013
H	-1.9965787125	-3.293711644	 0.6716607819	 0.09631
H	-2.5462166344	-3.522792057	-0.9924184108	 0.115182
