17
gdb 8286	8.01131	0.90439	0.87902	3.3107	67.81	-0.2291	0.0051	0.2342	1304.2626	0.141012	-400.990584	-400.982325	-400.981381	-401.024221	28.881	
C	-0.0770255321	 1.5015609775	 0.1037348744	-0.31901
N	 0.003583786	 0.0599777506	 0.1891638137	-0.071027
C	-1.1918080387	-0.6888400739	 0.6255818567	-0.197008
C	-0.2491522578	-1.6567318036	 1.3697643477	 0.118362
C	 0.8088988216	-0.5386007725	 1.2723718121	-0.19702
O	-0.6462859764	-2.0177306073	 2.6822054976	-0.183578
C	-0.6582566044	-3.3233306407	 3.0186786711	 0.165767
O	-0.9798879241	-3.7073499676	 4.1014548416	-0.271746
H	 0.906060276	 1.912493921	-0.1484827348	 0.125081
H	-0.7733925132	 1.7864245012	-0.6917929788	 0.125079
H	-0.4169024992	 1.9734271913	 1.0448600846	 0.096058
H	-1.8199843725	-0.1424348332	 1.3476724052	 0.104671
H	-1.8199181052	-1.0819147862	-0.1802205604	 0.10896
H	 0.0057600228	-2.5475076037	 0.7881135412	 0.101234
H	 1.8348601018	-0.8074243311	 1.0012980699	 0.108968
H	 0.8179106394	 0.0556418732	 2.2004730984	 0.104677
H	-0.3403603637	-3.9824562953	 2.1870954397	 0.080534
