14
gdb 84191	3.6092	1.12217	0.8878	1.3995	71.7	-0.2509	-0.0678	0.1831	1217.2516	0.102204	-432.912125	-432.904009	-432.903065	-432.945036	29.665	
N	 0.0589267887	 1.5161537251	 0.1656358727	-0.509291
C	-0.0405752011	 0.0725549052	-0.0076813926	-0.123488
C	-1.4442985882	-0.4551364522	-0.1269181272	-0.220678
C	-1.5075247401	-1.270301975	-1.1932705507	 0.266707
N	-0.2668729613	-1.358709902	-1.8587380885	-0.402466
C	 0.6519098876	-0.4981671566	-1.2772249324	 0.390024
O	 1.7533720714	-0.2359174507	-1.6918298068	-0.356238
C	-2.6234223068	-2.0109878367	-1.6676278853	 0.230482
N	-3.5218784545	-2.6168047502	-2.0743448906	-0.320218
H	 1.0427614846	 1.7741012385	 0.136370493	 0.249839
H	-0.3774276378	 1.9834966483	-0.6250972296	 0.235857
H	 0.4536091717	-0.4004639987	 0.855078174	 0.139004
H	-2.250840286	-0.2402289381	 0.5561959356	 0.144099
H	-0.1400849781	-1.7707192167	-2.7703890916	 0.276368
