19
gdb 63517	3.12929	1.27915	1.27516	2.5299	76.42	-0.2283	0.0693	0.2976	1098.8791	0.157114	-422.927324	-422.918899	-422.917955	-422.959918	33.165	
C	-0.0612191948	 1.5595247233	-0.0746368291	-0.452077
C	-0.0122062094	 0.0495211744	-0.0044502023	 0.282231
O	-1.1789008839	-0.5928975548	-0.4555051484	-0.468014
C	 1.3184595195	-0.6777719158	-0.2267006551	-0.455361
C	 0.6652560669	-0.6483772216	 1.1156746399	 0.446169
C	 1.1417785233	-0.2758996577	 2.52763096	-0.059545
C	-0.2453412158	-0.6977321717	 3.0780755848	-0.220389
C	 0.2500186982	-1.7691766024	 2.0744401939	-0.03405
O	 1.5971261826	-1.677811657	 2.7019658164	-0.312366
H	 0.8475832997	 2.0064262799	 0.3386926341	 0.120026
H	-0.1536141563	 1.8976143789	-1.114437259	 0.110725
H	-0.9217542884	 1.9442683552	 0.4823408249	 0.126801
H	-1.2582896461	-0.4298782268	-1.4025068111	 0.280775
H	 1.2774491762	-1.611837147	-0.7780081232	 0.117357
H	 2.2128731595	-0.0849762013	-0.3938696629	 0.112016
H	 1.813794349	 0.5177256669	 2.8543574142	 0.093974
H	-0.2430329585	-1.0137086639	 4.1219896008	 0.104835
H	-1.1173554913	-0.1008645376	 2.8012464193	 0.106149
H	-0.1440508705	-2.7600580909	 1.8546807028	 0.100742
