18
gdb 56841	3.12848	1.15233	0.9919	3.6468	76.64	-0.2945	0.0117	0.3062	1222.6957	0.148433	-401.898236	-401.890089	-401.889145	-401.931634	30.849	
O	-0.0787555167	 1.3747294601	-0.0483836895	-0.405478
C	 0.0726305013	-0.0328269614	-0.1319748201	-0.079433
C	 0.86776859	-0.4125330609	-1.3212167134	 0.262042
N	 1.519586397	-0.6959812679	-2.2325973788	-0.322924
C	 0.7120759601	-0.6175767839	 1.1279018806	 0.045832
C	-0.0876335107	-0.6768359063	 2.4669608537	-0.061482
C	-0.8785798526	-1.8916951688	 1.8965847505	-0.22882
C	 0.6064444619	-2.1333968831	 1.4900838646	-0.057894
C	 0.9784151901	-1.7089062127	 2.9423525824	-0.22229
H	 0.795017472	 1.7639682898	 0.0749336652	 0.293057
H	-0.9397808559	-0.4171194044	-0.2784654787	 0.137324
H	 1.7259383275	-0.2082334495	 1.2249449675	 0.071856
H	-0.4845695623	 0.1710897904	 3.0248949127	 0.084493
H	-1.2886059204	-2.5830668391	 2.6367143271	 0.100037
H	-1.6080257952	-1.7087579602	 1.1059175742	 0.098864
H	 1.0139109782	-2.9691385559	 0.9210328891	 0.090153
H	 1.9928450427	-1.3340262592	 3.1024502396	 0.096062
H	 0.6702552432	-2.3906624871	 3.7382652633	 0.098601
