18
gdb 36241	4.35098	1.0916	1.02876	2.2422	80.64	-0.2399	0.057	0.2969	1197.9083	0.147786	-364.705417	-364.69773	-364.696786	-364.738007	30.242	
C	 0.0109926799	-1.209695996	 0.0624930485	-0.43944
C	-0.0324215943	-0.0093177647	 0.0292440539	 0.302479
C	-0.0638055803	 1.4470077889	-0.0265824263	-0.384269
C	 1.3367717485	 2.0722032192	-0.0019417392	 0.08582
C	 1.5391949582	 3.5981268834	-0.1052546798	-0.116597
C	 0.7287380029	 4.1651382841	 1.0913100362	-0.250576
C	 1.6977171029	 3.3772764083	 1.9711972862	-0.034056
C	 2.7268348973	 3.3501671083	 0.9069137352	-0.048896
N	 2.0753567948	 2.0736292781	 1.306519771	-0.146628
H	 0.0455828827	-2.2699300839	 0.1028110024	 0.193902
H	-0.5687162471	 1.7694696842	-0.9480119331	 0.129443
H	-0.6631816509	 1.8305268248	 0.8057416927	 0.134506
H	 1.9776472915	 1.5497223249	-0.7183123774	 0.093863
H	 1.5670181845	 4.1177952952	-1.0614280513	 0.073903
H	 0.9035359497	 5.2378769117	 1.207614961	 0.108707
H	-0.3461692192	 3.9659135089	 1.1430947155	 0.097532
H	 1.8219104907	 3.4060301444	 3.045312336	 0.100327
H	 3.795691738	 3.5148305601	 0.8873304484	 0.099981
