18
gdb 7485	3.35448	1.51477	1.3073	3.0016	67.84	-0.2423	-0.0196	0.2228	995.4461	0.152023	-384.938816	-384.930366	-384.929421	-384.972292	30.992	
O	 0.2445792777	 1.5246442132	-0.3374168872	-0.486629
C	 0.0006307058	 0.1777277222	 0.0141862548	 0.410484
C	 0.8647000293	-0.6608869879	-0.9421487742	-0.298245
C	 2.3309901882	-0.3180595732	-0.7762239973	 0.156308
O	 3.0961624372	-0.9642181539	-0.1038261245	-0.248906
C	 0.1615292528	-0.2354887207	 1.5093127623	-0.279385
C	-1.1238541681	-1.0959420454	 1.3708174733	-0.215116
C	-1.4769791132	-0.3099827001	 0.0790364673	-0.276368
H	-0.2359170197	 2.0876235233	 0.2780465288	 0.27773
H	 0.7273469078	-1.7247525596	-0.7324065777	 0.120647
H	 0.5475657851	-0.4446757551	-1.9688136887	 0.11404
H	 2.664561619	 0.6019745062	-1.3001158963	 0.094104
H	 1.0934903816	-0.7266730505	 1.7956644986	 0.127803
H	 0.0024552728	 0.6275622415	 2.1647834245	 0.09163
H	-0.8993314164	-2.1462678031	 1.1699001825	 0.112986
H	-1.8424959457	-1.0502177652	 2.1906325809	 0.103438
H	-2.1447879558	 0.5332067016	 0.2859652282	 0.093817
H	-1.8684435983	-0.8605144132	-0.7804787054	 0.101661
