17
gdb 20539	4.4257	1.50502	1.22433	3.9555	69.53	-0.2492	0.0027	0.2519	1001.8445	0.143338	-360.054168	-360.046382	-360.045438	-360.086802	28.625	
C	-0.0684520274	 1.5717390385	 0.4604101554	-0.397297
C	-0.0660180431	 0.0987267384	 0.0344302786	-0.066692
C	 0.9831146174	-0.7134767362	 0.8163644116	-0.382412
C	-1.4258314884	-0.5279238468	 0.1626996189	 0.325048
C	-2.5840678774	-0.057596912	 0.7391458728	-0.177883
N	-3.4745074972	-1.0637291909	 0.5615323916	-0.158725
N	-2.9204935455	-2.1033179111	-0.0856596362	-0.11397
N	-1.6838472257	-1.7804562774	-0.3261412876	-0.255456
H	 0.9210541843	 2.0144666927	 0.3134851952	 0.116574
H	-0.7893053957	 2.158226872	-0.118290714	 0.114626
H	-0.3198720941	 1.6751469939	 1.522548627	 0.113268
H	 0.2073958478	 0.0489177771	-1.0278506628	 0.0982
H	 0.7779928096	-0.678499	 1.892194705	 0.111108
H	 0.9710977937	-1.7600709113	 0.5032010011	 0.140558
H	 1.9869545221	-0.3099153539	 0.6482460813	 0.107682
H	-2.8410564544	 0.8633565705	 1.233137424	 0.144886
H	-4.4420155161	-1.1125402336	 0.837554528	 0.280485
