18
gdb 70158	2.67495	1.64116	1.20162	2.8225	73.16	-0.226	0.0251	0.2511	1042.0686	0.148762	-439.068659	-439.060802	-439.059858	-439.100826	30.917	
O	 0.1818904849	 1.3971210256	-0.2898615274	-0.467724
C	 0.1119257712	 0.0045057909	-0.1096899145	 0.345476
C	-0.5947935198	-0.818796785	-1.1619641025	-0.363778
C	-1.2770552477	-0.4991710759	 0.1597331831	-0.002306
N	-1.6368317693	-1.5424192455	 1.063825733	-0.268733
C	-1.001441465	-1.9258116512	 2.0853964317	 0.128901
O	 0.1648058143	-1.566661403	 2.6733749193	-0.227074
C	 0.9756174384	-0.484370613	 2.1888901084	-0.064083
C	 1.2600478368	-0.5786277819	 0.6942185323	-0.28342
H	 0.8442142761	 1.5762190274	-0.9674601614	 0.280411
H	-0.9635116225	-0.3078544027	-2.0444068259	 0.114009
H	-0.2615063265	-1.8393698337	-1.3200183985	 0.115591
H	-2.0534949208	 0.2564886529	 0.0761609501	 0.112937
H	-1.4201381545	-2.7404909364	 2.6771183679	 0.120251
H	 0.4915978647	 0.4711647407	 2.4238176078	 0.12915
H	 1.8919909691	-0.560207079	 2.7798702327	 0.113711
H	 1.4514822841	-1.6248249292	 0.434011138	 0.115924
H	 2.1747057765	-0.0201373608	 0.4641230557	 0.100756
