21
gdb 65203	3.02145	1.38066	1.22389	1.5246	81.3	-0.2244	0.0765	0.3009	1121.0293	0.183585	-383.19742	-383.189007	-383.188062	-383.230247	33.103	
C	 0.0620194839	 1.5486969171	-0.5503249121	-0.461307
C	 0.0396180634	 0.1139748853	-0.0616912605	 0.311449
C	 1.1639030546	-0.7867080403	-0.4263702791	-0.284832
N	 1.0242698795	-0.3014141392	 0.9598033717	-0.340529
C	-1.3518344865	-0.4657542192	 0.0728655394	 0.00854
C	-1.6098061059	-1.7975461242	 0.8296644315	-0.290001
C	-2.5724668562	-0.9950786886	 1.7039571668	-0.019907
C	-1.8754300961	 0.1297644792	 2.3505667982	-0.243114
N	-2.3275526364	 0.2989496679	 0.94826954	-0.159959
H	 1.0890748019	 1.9122821843	-0.6599948134	 0.105396
H	-0.4329623653	 1.6388825227	-1.5235284489	 0.125251
H	-0.468567124	 2.2031963986	 0.1480305854	 0.14289
H	 0.9958588877	-1.8530841336	-0.5533023837	 0.117486
H	 1.9618219693	-0.3801374645	-1.0424537465	 0.110355
H	 1.6831732342	 0.4551853369	 1.1278543103	 0.227236
H	-1.7976635226	-0.4935289159	-0.9272005236	 0.08263
H	-2.0930951256	-2.5520354602	 0.2066405239	 0.102773
H	-0.7612123335	-2.2449056515	 1.3523197195	 0.122218
H	-3.5758887132	-1.3027686392	 1.9799579789	 0.090143
H	-2.4472776799	 0.7489253972	 3.0351307243	 0.112716
H	-0.8154589192	 0.0490716073	 2.5673958577	 0.140565
