17
gdb 53427	3.30922	0.94567	0.77305	1.8447	77.93	-0.2346	-0.027	0.2077	1470.6248	0.134382	-421.819823	-421.81058	-421.809635	-421.856412	31.969	
C	 0.0940533811	 1.5743105036	-0.2379790916	-0.499666
C	 0.0628012469	 0.1274334537	-0.084935685	 0.095812
C	 0.0352644236	-1.0702142762	 0.0324188796	 0.06649
C	-0.0114754708	-2.507439579	 0.1967802543	-0.309844
C	 0.4816404431	-3.060582124	 1.5507062174	-0.099278
O	-0.1151867029	-4.3498644758	 1.6594996215	-0.245273
C	-1.4401825756	-4.246547749	 1.1792349141	-0.185971
C	-1.4324599845	-3.1292021256	 0.1316111025	 0.368039
O	-2.3416863153	-2.8023627724	-0.5756083699	-0.287808
H	 0.9353989125	 1.8903224916	-0.8643614122	 0.150075
H	-0.8257681894	 1.9407258721	-0.7066322841	 0.155594
H	 0.195008928	 2.0746453502	 0.7313319616	 0.149199
H	 0.5583163867	-3.0075773805	-0.6011072352	 0.137592
H	 1.5637162503	-3.1872142773	 1.6038913874	 0.127954
H	 0.157620663	-2.3988198902	 2.3681348706	 0.108066
H	-1.7541357465	-5.2032684217	 0.7527777478	 0.143052
H	-2.1526145505	-3.9718317394	 1.9755311813	 0.125968
