15
gdb 42739	2.74301	1.64105	1.25386	2.9858	71.21	-0.2342	-0.0291	0.2051	995.558	0.112013	-420.574491	-420.567105	-420.566161	-420.606464	28.515	
O	-0.0476020429	 0.0500476204	-0.0079232729	-0.306291
C	-0.071800565	 1.2429100847	 0.0157577796	 0.439181
C	-1.2546207891	 2.2226919438	 0.0252262005	-0.031756
C	-0.8287954117	 3.2441265729	-1.0582430326	-0.25766
C	 0.2149428365	 3.5267876629	 0.0448758795	 0.072557
O	-0.7925571533	 3.1655085256	 1.0427322215	-0.285646
C	 1.1245559519	 2.2674798149	 0.0415984021	-0.31549
C	 1.9893672306	 2.139139435	 1.1948930438	 0.328666
C	 2.7073013981	 2.0328998272	 2.1525225353	-0.432707
H	-2.2593897254	 1.8306973475	 0.1639805846	 0.108931
H	-0.4962722909	 2.8870170313	-2.0364972592	 0.115228
H	-1.5572783622	 4.0499163369	-1.1486549616	 0.13057
H	 0.6825087659	 4.495592945	 0.2087734325	 0.106107
H	 1.6999571705	 2.1670468819	-0.8865111018	 0.128015
H	 3.338163237	 1.9349130699	 3.0010232188	 0.200295
