23
gdb 88988	3.59881	0.79482	0.77654	1.5755	87.64	-0.2212	0.0831	0.3043	1618.0752	0.204787	-384.399854	-384.389879	-384.388934	-384.435381	36.865	
C	 2.1541005751	-0.8161706567	-0.1569439121	-0.310224
N	 0.7343040311	-0.5993491782	 0.0755045952	-0.090946
C	 0.0196508245	-1.5764968487	 0.8881956486	-0.248391
C	 0.2550020972	-0.1925264236	 1.396587756	 0.029032
C	 1.1642293778	 0.0645391752	 2.5861152244	-0.267019
C	 0.4032630287	-0.0122352279	 3.8981866055	 0.034941
C	 0.8753364112	 0.7138559873	 5.1126192794	-0.266181
N	-0.3743394724	 1.0934029169	 4.4653701318	-0.076717
C	-0.4223796274	 2.3849773637	 3.7980847018	-0.315235
H	 2.6838587349	-1.3389581885	 0.6547860227	 0.098907
H	 2.2684519588	-1.4155176583	-1.0659845859	 0.123801
H	 2.6479173298	 0.1466056064	-0.3250723059	 0.121128
H	-0.956430608	-1.8866019317	 0.5236785708	 0.113994
H	 0.6029064021	-2.3735570873	 1.3511171261	 0.10077
H	-0.5780225865	 0.5070781823	 1.3336856655	 0.093464
H	 1.9677717951	-0.6787742243	 2.6224498999	 0.104359
H	 1.6514034608	 1.0402321837	 2.4803371027	 0.102633
H	-0.0868142981	-0.9744660881	 4.0468388111	 0.090111
H	 0.7927041007	 0.2708359381	 6.1021249584	 0.111912
H	 1.7341535556	 1.3737179075	 4.983552652	 0.100996
H	 0.5268174461	 2.7102783944	 3.3435073911	 0.09954
H	-1.1885297412	 2.3649190813	 3.0160354914	 0.124837
H	-0.7124532358	 3.1430496267	 4.5329246994	 0.124288
