19
gdb 105636	2.01146	1.39885	1.21224	5.1704	75.99	-0.2569	0.0084	0.2653	1176.3093	0.158392	-419.196944	-419.187186	-419.186242	-419.231788	35.192	
C	 0.2849910436	 1.5522492526	 0.1021512819	-0.401877
C	 0.1087925139	 0.0380042581	-0.0391437254	-0.21652
C	 0.6570193401	-0.5001273637	-1.3616065747	 0.271846
O	 2.0890540594	-0.3105855915	-1.479256512	-0.307861
C	 2.3516314574	-1.7269758249	-1.3895620608	-0.096001
C	 0.8403100986	-2.0605766391	-1.4692807948	-0.087636
N	 0.1759960617	-2.8786307335	-0.4907330942	-0.509609
C	-0.0440165629	 0.0936632999	-2.5097689835	 0.265194
N	-0.6108697092	 0.5295583143	-3.4181804886	-0.348015
H	 1.3381040668	 1.8269812949	-0.0033254881	 0.138502
H	-0.2851099752	 2.0902002306	-0.6611564515	 0.142074
H	-0.0615171287	 1.8891217747	 1.0829953077	 0.11697
H	 0.6388582231	-0.4750921849	 0.7709538249	 0.093819
H	-0.9448800106	-0.2495010656	 0.039418227	 0.128586
H	 2.9869853849	-2.0794456876	-2.2089862147	 0.117093
H	 2.8171028975	-1.9960774059	-0.4309081117	 0.09702
H	 0.5528608016	-2.4072726381	-2.4628757282	 0.117372
H	 0.1252849802	-3.8450773675	-0.7876946606	 0.243605
H	 0.6397171276	-2.8544501829	 0.4103188774	 0.235437
