16
gdb 8129	4.30004	1.73035	1.44814	4.3188	64.13	-0.268	0.0103	0.2783	880.7075	0.130873	-383.7774	-383.77042	-383.769476	-383.808412	26.984	
C	-0.2070908471	 1.5467605762	 0.0762076966	-0.481454
C	 0.0559200428	 0.0631064921	-0.0089827466	 0.311783
C	-0.7441630397	-0.9084688279	 0.8465490217	-0.356693
C	 0.7242856665	-0.7170615103	 1.0934665855	 0.06424
O	 1.5832180113	-1.6979684156	 0.5457265173	-0.215951
C	 1.554538589	-1.6592810274	-0.8225023635	 0.426143
O	 2.1721689815	-2.429772507	-1.4939719549	-0.326334
C	 0.6360632284	-0.5217757321	-1.2829542849	-0.440921
H	 0.6793536975	 2.1236216627	-0.2107148663	 0.123981
H	-1.0277833247	 1.8423284374	-0.5869750234	 0.12786
H	-0.4837858284	 1.8415609471	 1.0933288605	 0.121225
H	-1.4331348762	-0.4773850777	 1.56517292	 0.122035
H	-1.0624225852	-1.8565179487	 0.4235440579	 0.126848
H	 1.1167374575	-0.2849179234	 2.0055918929	 0.114499
H	-0.1019593476	-0.9191537487	-1.9856424381	 0.143063
H	 1.2415174944	 0.2091821332	-1.8302922646	 0.139676
