15
gdb 48934	4.2706	1.54985	1.35972	2.9828	67.99	-0.2441	-0.0313	0.2128	916.4422	0.112722	-420.574424	-420.567962	-420.567018	-420.605363	25.78	
O	-0.3029410651	 0.5204278299	-0.7122924178	-0.268102
C	 0.1828925422	 1.1114053407	 0.2232620706	 0.060218
C	 1.3975283949	 1.9380423863	 0.1222736908	 0.3385
O	 1.8374817388	 2.5594329868	 1.2923781491	-0.273006
C	 2.971997417	 3.2340519772	 0.832602033	 0.053593
C	 3.679878732	 2.4783559329	-0.2778193862	-0.135616
C	 2.8207713406	 3.7010768753	-0.6041441544	-0.135601
C	 1.7147467472	 2.7700201484	-1.1301256764	-0.14297
C	 2.5616878892	 1.5647755799	-0.8087032177	-0.142953
H	-0.2566091684	 1.074483319	 1.2425806551	 0.092617
H	 3.495691643	 3.8036164599	 1.5879209473	 0.11693
H	 4.7464067026	 2.3204299012	-0.3447801906	 0.103001
H	 3.0886366679	 4.6798498913	-0.9744904231	 0.103002
H	 0.9918290737	 2.9376162498	-1.9151571453	 0.115192
H	 2.6335331045	 0.6013990415	-1.2921447244	 0.115193
