21
gdb 87967	2.54335	1.40202	1.11499	2.4547	78.83	-0.2378	0.0747	0.3125	1178.7283	0.182247	-424.216069	-424.206987	-424.206043	-424.250353	34.601	
C	 0.82709761	 1.3322993364	-0.4251274292	-0.391486
C	 0.0454712969	 0.1028954923	 0.023581548	 0.150895
C	-0.0752046828	-0.9913082379	-1.0660963008	-0.334135
C	 0.967025901	-2.0048751921	-0.6274541279	 0.324093
C	 1.2390442079	-3.2970601899	-1.3550653511	-0.409569
C	 2.2518038739	-2.172665026	-1.3840360409	 0.061093
O	 2.4091528454	-1.4073847169	-2.5429080773	-0.418063
C	 0.969322444	-1.8766739586	 0.8808295669	-0.136502
O	 0.7360812803	-0.5005390591	 1.1347934281	-0.276032
H	 1.7789694363	 1.0374122152	-0.8778375968	 0.13195
H	 0.2548366053	 1.9029352545	-1.1644729037	 0.106545
H	 1.0327106156	 1.9827390099	 0.429766181	 0.119332
H	-0.9506635696	 0.4102989756	 0.370506512	 0.066454
H	-1.0733325186	-1.4425288708	-1.0577375584	 0.097923
H	 0.1198519328	-0.6043433069	-2.067516714	 0.123343
H	 1.4675435436	-4.1887752935	-0.7787240731	 0.111263
H	 0.6803857891	-3.4767899551	-2.2683830149	 0.113881
H	 3.1616513153	-2.3001875237	-0.7957826831	 0.086517
H	 2.8675040257	-1.9430967709	-3.1985743677	 0.290033
H	 0.1748271723	-2.5003896843	 1.3260923027	 0.083057
H	 1.9208468456	-2.1609542184	 1.3445611302	 0.099408
