15
gdb 9701	3.81522	1.59563	1.57713	3.3762	66.09	-0.2608	0.0085	0.2693	869.3266	0.119073	-362.683245	-362.67591	-362.674966	-362.714746	27.684	
O	-0.1063888788	 1.4491338457	 0.0280849597	-0.446809
C	-0.0106384693	 0.0314774106	 0.0250999907	 0.241719
C	 0.5977518776	-0.5060669817	 1.3598982221	-0.297821
C	-0.6202221275	-0.8436008748	 2.1809389598	-0.061936
C	-1.7331049009	-0.8419664569	 1.4521057464	-0.061262
C	-1.4736076581	-0.4963345546	 0.00879277	-0.278221
C	 0.7678491779	-0.4102227818	-1.1495170671	 0.232737
N	 1.401571989	-0.7347078211	-2.0601802324	-0.343709
H	 0.7845287363	 1.8146833116	 0.0768306344	 0.290366
H	 1.2285183703	-1.3874965153	 1.1897517162	 0.132453
H	 1.237400232	 0.2602593854	 1.8132998914	 0.113025
H	-0.5570272716	-1.0805299071	 3.2363764045	 0.104145
H	-2.7253207774	-1.080106334	 1.8167073663	 0.104474
H	-2.1252532745	 0.288497099	-0.3865980807	 0.139203
H	-1.5802259351	-1.3703939049	-0.6442724612	 0.131636
