16
gdb 5082	3.28718	1.97365	1.25091	0.599	67.43	-0.1728	0.0683	0.2411	940.7527	0.131393	-379.953215	-379.944968	-379.944024	-379.985305	30.879	
C	-0.1144723842	 1.5069233872	 0.0391297183	-0.507748
C	-0.0392322745	 0.0120796974	 0.0068293551	 0.226979
C	-0.0730796886	-0.7918572648	-1.1046909312	-0.194643
N	 0.0234358303	-2.1160869349	-0.6917311503	-0.320783
C	 0.117059182	-2.1448114936	 0.6642224948	 0.401654
O	 0.2229313151	-3.313238574	 1.332473302	-0.440888
C	 0.0832127326	-0.8586351946	 1.1460089163	-0.032753
N	 0.1650833926	-0.6009222428	 2.5489227751	-0.627433
H	 0.7769458683	 1.9530049412	 0.4985143519	 0.11487
H	-0.2044308226	 1.9191691968	-0.9699828717	 0.120369
H	-0.97683535	 1.8621591842	 0.6177379039	 0.114867
H	-0.1568618752	-0.5464379463	-2.1506558028	 0.109601
H	 0.0256976028	-2.9274695056	-1.2832868703	 0.263137
H	 0.2726756163	-3.0535432601	 2.2649227632	 0.302322
H	-0.6541697435	-0.1082238388	 2.8930377305	 0.235225
H	 0.9684412586	-0.0245722113	 2.7829804352	 0.235225
