21
gdb 120954	4.20762	0.94645	0.91031	1.2078	79.17	-0.2385	0.0838	0.3223	1386.8062	0.183334	-424.19029	-424.181856	-424.180912	-424.224017	32.019	
C	 0.5922725818	 1.3143682827	-0.0119966745	-0.222424
O	 0.714923974	-0.077077612	-0.1794116526	-0.238195
C	-0.2064324365	-0.6040089798	-1.1100305216	-0.092173
C	 0.0109689628	-2.108201486	-1.1638971433	 0.122802
O	-0.9952726283	-2.7309332574	-1.9986262613	-0.304598
C	-0.1863437975	-3.4837043382	-2.9238032721	 0.117422
C	 0.8926271505	-4.1242821659	-2.0170587536	-0.236954
C	 1.285920181	-2.6190916988	-1.8546542626	-0.065642
C	 0.8958600358	-2.4696142491	-3.3614081804	-0.239128
H	 0.7717196834	 1.8575654164	-0.9535836116	 0.103497
H	-0.4067078498	 1.5946538033	 0.358157163	 0.105071
H	 1.3404954198	 1.6241677731	 0.7218194115	 0.126125
H	-1.2447274685	-0.4012107148	-0.7992802577	 0.095922
H	-0.0682279785	-0.1452999227	-2.102008682	 0.08691
H	-0.0654494597	-2.4961054373	-0.1395991626	 0.080779
H	-0.8310665616	-4.0349816865	-3.6062832159	 0.078191
H	 0.5450843714	-4.6670460755	-1.13440784	 0.099543
H	 1.6374910318	-4.7029593854	-2.5656705393	 0.099613
H	 2.239716913	-2.290135513	-1.4475058206	 0.083858
H	 1.6466841788	-2.8982943036	-4.0270574161	 0.100589
H	 0.557078196	-1.5010719894	-3.7343033963	 0.098792
