17
gdb 46787	2.96506	1.61311	1.26717	3.7209	67.83	-0.2567	0.0089	0.2656	995.776	0.137515	-458.978515	-458.971204	-458.97026	-459.010911	27.984	
O	 0.0320953905	 0.2864255704	 0.9914821185	-0.309483
C	 0.0165377733	 1.2292623381	 0.2481854323	 0.392022
C	-1.303119355	 1.9558067312	-0.0366961644	-0.342781
C	-1.2766324395	 3.3223851474	-0.6979152566	 0.096016
C	-0.0944656505	 4.2356512952	-0.3086008952	-0.29182
C	 0.5262737376	 3.665440905	-1.5985236607	 0.086005
C	 1.4561302531	 2.4843426218	-1.3993264347	-0.074867
O	 1.2069793653	 1.6505907176	-0.2585756347	-0.235573
O	-0.7703633437	 3.2129024693	-2.0530251529	-0.294478
H	-1.9043160629	 1.2816473115	-0.6582254133	 0.151538
H	-1.8085210336	 2.0074242821	 0.9333635241	 0.142551
H	-2.2760836413	 3.7678858688	-0.6819128984	 0.090328
H	-0.335773267	 5.2953249247	-0.3937780871	 0.120056
H	 0.4168275646	 4.0393569397	 0.6344832477	 0.124109
H	 0.9809516402	 4.3674929363	-2.3064577803	 0.090963
H	 1.4308029284	 1.8630305564	-2.3028642392	 0.13018
H	 2.4820823704	 2.8351471247	-1.2504931753	 0.125233
