16
gdb 32114	3.85057	1.16988	0.90238	3.2885	76.6	-0.2207	-0.0117	0.209	1242.8285	0.126905	-434.144617	-434.13653	-434.135586	-434.177705	29.8	
C	 0.0566129348	 1.4582526621	 0.0512103363	-0.324831
N	-0.0610902848	 0.0200416851	 0.0133815563	-0.350138
C	-1.2292210457	-0.6673638528	-0.0018624824	 0.435981
C	-2.4915787957	-0.0379683355	 0.0122271301	-0.238385
C	-3.5876881242	-0.8783724099	-0.0070473644	 0.016176
N	-3.5015721665	-2.2131233318	-0.0373565582	-0.3755
C	-2.2499768602	-2.6859978491	-0.04790779	 0.446562
O	-2.1200560997	-4.0228674819	-0.0777511929	-0.396633
N	-1.1155740474	-2.0063037127	-0.0320929938	-0.379102
H	 1.11523675	 1.7231267734	 0.0565399135	 0.136565
H	-0.4060675957	 1.9307150429	-0.8248803657	 0.134471
H	-0.4038022313	 1.884533445	 0.9519330038	 0.134245
H	 0.7672573031	-0.5521146673	 0.0040324932	 0.254929
H	-2.6051156377	 1.0365589874	 0.036598942	 0.094112
H	-4.5940404703	-0.4652066481	 0.0021806144	 0.110674
H	-3.0228440387	-4.3694086169	-0.0856899122	 0.300874
