21
gdb 72462	2.46873	1.90404	1.46731	1.3261	81.85	-0.2367	0.0223	0.259	1001.817	0.184963	-387.120881	-387.11327	-387.112326	-387.152341	31.666	
C	 0.0260410048	 1.5104824271	 0.0431317916	-0.461429
C	-0.0087116283	-0.007708715	-0.0237842684	 0.39295
C	 0.7389670493	-0.6035242798	-1.2609005205	-0.269541
C	 1.6057005661	-1.7433846623	-0.6648953359	-0.209532
C	 0.9999047695	-1.8733833941	 0.7494215975	 0.030974
O	 0.7317395621	-0.5173330131	 1.0992637134	-0.286114
C	-0.2930653464	-2.6597690046	 0.7126845221	-0.06188
C	-1.4286706521	-2.0370808096	 0.4032265439	-0.065297
C	-1.4472027759	-0.5625626908	 0.0823204959	-0.282183
H	 1.0584035236	 1.8693246715	 0.0002445006	 0.118296
H	-0.5290115877	 1.9457611506	-0.7941915942	 0.113255
H	-0.4230555271	 1.8654600335	 0.9755183809	 0.122035
H	 0.0364499811	-0.9725216962	-2.0119912615	 0.102733
H	 1.3600226883	 0.1572257382	-1.7403093186	 0.100708
H	 1.5518623868	-2.6696735809	-1.241879879	 0.09897
H	 2.6553228699	-1.444213733	-0.5924850769	 0.100461
H	 1.6969739746	-2.2751181588	 1.4895600912	 0.075655
H	-0.2589178446	-3.7256423007	 0.918662682	 0.086164
H	-2.374642075	-2.5721210013	 0.3811801243	 0.087688
H	-2.0022602825	-0.016622318	 0.8583647347	 0.10548
H	-1.9856242267	-0.3831680825	-0.858034443	 0.100609
