23
gdb 81681	2.37827	1.46896	1.3355	1.6221	83.89	-0.2343	0.0733	0.3076	1140.2018	0.207566	-388.292339	-388.283777	-388.282833	-388.325149	34.251	
C	-0.1643212184	 1.6327061489	-0.0027379105	-0.439216
C	 0.0379665122	 0.1267201138	 0.0110914376	 0.041329
C	 1.0675372067	-0.5998365079	-0.8884072451	 0.064036
C	 2.3933717962	 0.1630438496	-1.0007161351	-0.241776
C	 3.1019535992	 0.1911843564	 0.3811456494	 0.079227
C	 4.0943210825	 1.34759813	 0.5090389767	-0.413682
C	 2.085177253	 0.1449412082	 1.5543700311	-0.241779
C	 0.8253483748	-0.6140415109	 1.1193956702	 0.064028
O	 1.2013240922	-1.6283287958	 0.1390132568	-0.300229
H	 0.7675101532	 2.1919621805	 0.1142901033	 0.122166
H	-0.6235724057	 1.9517674326	-0.945082655	 0.118093
H	-0.8361348653	 1.9393347969	 0.8068057742	 0.118085
H	-0.9257150841	-0.3777235024	-0.1087124354	 0.080884
H	 0.7252278104	-1.0143439238	-1.8411099892	 0.06953
H	 3.0498844194	-0.3203266732	-1.7322995787	 0.098783
H	 2.2044913931	 1.1761722118	-1.3778619368	 0.094856
H	 3.6640238388	-0.7453971303	 0.4423068468	 0.090464
H	 3.5848175225	 2.3172085158	 0.454455576	 0.110488
H	 4.6287478411	 1.3080178922	 1.4646017972	 0.110772
H	 4.8406866474	 1.3204706584	-0.2925104006	 0.110772
H	 2.5497176566	-0.3497339182	 2.4142354262	 0.098784
H	 1.8103593373	 1.1530169549	 1.8899291688	 0.094853
H	 0.2670217667	-1.0412193975	 1.9575030724	 0.069531
