21
gdb 114768	3.83264	1.04999	0.89087	1.3937	84.47	-0.2259	0.0258	0.2518	1339.5842	0.184295	-387.084579	-387.076096	-387.075152	-387.1177	33.185	
O	 0.0681478979	 1.3933771557	 0.1108362814	-0.422483
C	 0.0426475349	-0.0262585542	 0.0623026979	-0.091188
C	-1.4151829213	-0.4777731766	-0.0239487869	-0.023449
C	-1.4971981503	-2.0014395048	-0.2513731693	-0.242654
C	-2.9140298075	-2.5557071462	-0.1028550476	-0.039099
C	-3.3101172963	-3.2851485989	 1.1597182807	-0.288766
C	-3.825256638	-1.8834734784	 0.8954971182	-0.051342
C	-3.2766934165	-0.7148587144	 1.6271062782	-0.101844
C	-2.1916297343	-0.0638459795	 1.2063842723	-0.039234
H	 0.9750945349	 1.6740573151	 0.2619673042	 0.2867
H	 0.596555633	-0.4026637769	-0.813025116	 0.082509
H	 0.5082344414	-0.4632610905	 0.9610623815	 0.084287
H	-1.8451584816	 0.0372583608	-0.8964583067	 0.092686
H	-1.1052783492	-2.2477247907	-1.2445634569	 0.09528
H	-0.8315313315	-2.4917145368	 0.4704599965	 0.096509
H	-3.3762993558	-2.9026998547	-1.0213206016	 0.081368
H	-4.0114979712	-4.109764782	 1.0862273684	 0.105532
H	-2.5508988107	-3.4040309532	 1.9264434327	 0.109184
H	-4.8800415783	-1.8160105931	 0.6398105853	 0.086675
H	-3.8046795514	-0.3837197887	 2.5187598132	 0.08229
H	-1.8263140081	 0.8101846281	 1.7369650947	 0.09704
