21
gdb 88468	2.5111	1.34641	1.26577	1.7666	78.42	-0.2449	0.0769	0.3217	1157.8006	0.180686	-424.19613	-424.186708	-424.185764	-424.230368	35.103	
C	 1.830618717	 0.6466165867	-0.8629740015	-0.436702
C	 1.0096466538	-0.4608605694	-0.2539849158	 0.080407
O	 1.7025704618	-1.5873405161	 0.3128602446	-0.270939
C	 0.9067015938	-0.7827180842	 1.1804846032	 0.010713
C	 1.6041076083	-0.0882997677	 2.3367447644	 0.385661
C	 0.6968622695	 0.9567862539	 2.9689928632	-0.445011
C	 2.2965904317	-1.1001094666	 3.2949399098	-0.322352
C	 3.6052577411	-0.5370970899	 2.7143691834	-0.066047
O	 2.8912461372	 0.4775266593	 1.9763728925	-0.310114
H	 2.6651032207	 0.9154223042	-0.2182988384	 0.162516
H	 2.2105895056	 0.3296849714	-1.8404073862	 0.119891
H	 1.2018819563	 1.5296294901	-1.025350554	 0.113286
H	 0.1515338852	-0.7643212467	-0.8598522611	 0.084313
H	-0.0179145122	-1.2697384526	 1.508040571	 0.081583
H	-0.2406924905	 0.5057144756	 3.3119246025	 0.118559
H	 1.1926202356	 1.4197057434	 3.8261987426	 0.122178
H	 0.4548409231	 1.7422315205	 2.2458887519	 0.128851
H	 2.1363015673	-0.8871339863	 4.353550055	 0.106271
H	 2.096758116	-2.1537135462	 3.0962103494	 0.120325
H	 4.3115081251	-0.0961650175	 3.4262865172	 0.100875
H	 4.1378819935	-1.2203515822	 2.0441083264	 0.115735
