15
gdb 30527	3.48655	1.09004	0.8314	6.2348	92.35	-0.1532	-0.0363	0.1168	1306.7743	0.112977	-453.934267	-453.925916	-453.924972	-453.967677	30.595	
N	-0.040587428	 1.4432325366	 0.1630169189	-0.520559
C	 0.1027696695	 0.0757946765	 0.0051038063	 0.05192
N	-0.9172275498	-0.7488845339	-0.0102686563	-0.285724
H	-1.877190981	-0.386471324	-0.0094435539	 0.278236
C	-1.0079948781	-2.0998722252	-0.0185984588	 0.260426
C	-2.2440061721	-2.7936004321	-0.0387172643	 0.246924
O	-3.3744273634	-2.2742418702	-0.0630380352	-0.472339
C	-1.7827415958	-4.1972283768	-0.019809365	-0.299003
C	-0.4325234983	-4.1809579155	 0.0089077665	 0.010263
O	 0.0915059808	-2.9083101473	 0.0119449281	-0.210802
H	 0.6647052958	 1.9906765433	-0.3115479607	 0.270704
H	-0.9672223616	 1.8117894246	-0.0096250534	 0.263751
H	 1.1001009321	-0.3394008102	 0.0029548132	 0.162922
H	-2.4107627375	-5.0745050785	-0.0270008829	 0.112436
H	 0.3098598074	-4.9632992673	 0.0281081276	 0.130846
