19
gdb 119860	3.24572	1.01683	0.79558	0.6461	80.92	-0.224	-0.0492	0.1748	1459.9603	0.159632	-419.253998	-419.244665	-419.24372	-419.289476	33.212	
C	 0.182692097	 1.5046246684	 0.0675631009	-0.394948
C	-0.2086904695	 0.0451205394	-0.1410446284	-0.114776
N	 0.5496952466	-0.5507216876	-1.2258521036	-0.365442
C	 0.7290372246	-1.8809935126	-1.36898304	 0.306848
N	 0.3940169488	-2.8072075582	-0.5411705342	-0.307707
C	 0.8253650513	-4.1099339652	-1.0706206741	-0.165966
C	 1.5021972199	-3.8808159286	-2.4405003012	-0.352245
C	 1.4094568277	-2.3748397237	-2.6189000329	 0.345377
O	 1.7693493445	-1.6811464383	-3.5391452205	-0.330301
H	 1.2440628402	 1.5945292927	 0.3168489469	 0.129559
H	-0.006611284	 2.0992905896	-0.8335933357	 0.118876
H	-0.4025510774	 1.9425111748	 0.8808734384	 0.125061
H	-0.0085271487	-0.5465315459	 0.7571193025	 0.138756
H	-1.2900289368	-0.0341236562	-0.3307004775	 0.106717
H	 0.7637577519	-0.0006494326	-2.0451364495	 0.252342
H	 1.504430378	-4.5831285409	-0.3515921765	 0.113278
H	-0.0460281494	-4.7702677268	-1.1503692385	 0.113374
H	 2.5509686925	-4.1920841694	-2.4693431231	 0.140731
H	 0.997121813	-4.3849666888	-3.269853273	 0.140466
