15
gdb 125035	3.32475	1.30798	0.94579	5.9065	72.71	-0.2255	-0.0635	0.162	1167.2585	0.112485	-450.138789	-450.130184	-450.12924	-450.172155	30.488	
C	-0.0626043306	 1.5642281247	 0.0974991351	-0.515724
C	-0.0236098919	 0.0792708686	-0.0232508029	 0.291024
C	-0.0413517559	-0.7403881066	-1.1217053178	 0.229392
N	-0.1341358948	-0.4248548073	-2.4731420967	-0.595461
N	-0.0243499447	-2.0519046488	-0.704031974	-0.222916
N	 0.0057582521	-2.1023492227	 0.58277664	-0.112345
N	 0.0185256572	-0.8140818062	 1.0349756329	-0.079155
C	 0.0767281008	-0.5201434624	 2.4095513954	 0.188795
O	 0.101700913	-1.3376985296	 3.2816625749	-0.247202
H	 0.8798691994	 1.9862604935	 0.4664597314	 0.145167
H	-0.2586018981	 1.9968673492	-0.886809905	 0.14772
H	-0.8622976334	 1.9040077862	 0.7646250275	 0.148914
H	 0.5132941812	 0.2899164142	-2.7773349861	 0.252525
H	-0.0305245501	-1.2553710896	-3.0426219172	 0.262
H	 0.0977395958	 0.5706000669	 2.5780486724	 0.107267
