16
gdb 14884	4.8351	1.45202	1.16181	1.1739	76.39	-0.2314	-0.0183	0.213	1005.7881	0.130906	-346.580212	-346.572849	-346.571905	-346.611691	28.049	
C	 0.1214179219	-1.2014532202	 0.0363372024	-0.414998
C	-0.0120124455	-0.003843227	 0.0112470887	 0.226671
C	-0.0889076154	 1.4140205251	-0.0174157151	 0.120219
C	-1.2491570771	 2.0871883602	-0.0093655484	-0.148241
C	-1.2943360699	 3.5885167419	 0.022387929	-0.251572
C	 0.0737015416	 4.1487127268	 0.4170214447	-0.084464
O	 1.1036369668	 3.5299287858	-0.3352153518	-0.242825
C	 1.2379189309	 2.15746658	-0.0425833066	-0.164845
H	 0.2171566449	-2.2585961984	 0.05978898	 0.194734
H	-2.1873821986	 1.5408758575	-0.0164494656	 0.097304
H	-1.593235754	 3.9785738294	-0.9606490004	 0.12296
H	-2.0586666267	 3.9297701935	 0.7323282538	 0.108849
H	 0.1438960115	 5.2200753892	 0.2114005293	 0.109296
H	 0.243206121	 3.9957587791	 1.4955852334	 0.092915
H	 1.7542826848	 2.0077465866	 0.9224040329	 0.105694
H	 1.8820192738	 1.7356433105	-0.8208909662	 0.128302
