19
gdb 26285	3.55625	1.24346	0.93328	3.5315	88.52	-0.1956	-0.0087	0.1869	1254.3969	0.161382	-382.117255	-382.108674	-382.10773	-382.15085	31.698	
C	 0.0039268622	 1.4452956462	 0.0331091743	-0.338774
N	 0.0121108487	 0.0034476826	-0.1140448792	-0.137776
C	 1.2670661419	-0.7035825724	 0.0577439695	-0.338932
C	-1.1805188707	-0.6928809046	-0.030155612	 0.331999
C	-1.2169251601	-2.1055392389	 0.0254672075	-0.078431
N	-2.3325121635	-2.8271820236	 0.0753821545	-0.26102
C	-3.5038559794	-2.186574584	 0.0826962475	-0.02384
C	-3.5908000767	-0.7993284524	 0.0498014497	-0.109446
C	-2.428576845	-0.0433078966	-0.0016277439	-0.187661
H	 1.0203340254	 1.8231415019	-0.08665194	 0.126084
H	-0.6158862586	 1.9184422288	-0.7376663674	 0.133254
H	-0.3703979981	 1.7751121042	 1.0152115354	 0.120267
H	 1.3641577769	-1.1713837802	 1.0497649416	 0.123196
H	 1.3842788355	-1.490040927	-0.6963671398	 0.137677
H	 2.0921463744	-0.0011501017	-0.0691787738	 0.124446
H	-0.2932225322	-2.6746064234	 0.0307714648	 0.094325
H	-4.3969424822	-2.8040011249	 0.1230205396	 0.09704
H	-4.5588865721	-0.309628983	 0.0686950448	 0.092548
H	-2.4926940164	 1.0368903891	-0.0185075831	 0.095043
