18
gdb 26161	2.6293	1.43526	0.96798	1.5307	75.14	-0.1812	0.0352	0.2165	1198.3943	0.14787	-439.11278	-439.103956	-439.103011	-439.146129	33.88	
C	 0.2125313022	 1.203544407	 1.1970702265	-0.398724
C	-0.2270591066	 0.554929881	-0.1142201359	-0.001981
O	 0.7744330381	-0.369842854	-0.5894850928	-0.429871
C	-1.5693404507	-0.1165760847	-0.0320042907	 0.155062
C	-2.0573397747	-0.9983435867	-0.9621165082	 0.298179
N	-1.5416532985	-1.4435527171	-2.1638446722	-0.599142
O	-3.2903769909	-1.4344555552	-0.6256077763	-0.176653
C	-3.6244272779	-0.8137296967	 0.5589748511	-0.041626
C	-2.6140755806	-0.0057938599	 0.9552898505	-0.284092
H	 1.2118787529	 1.6304657437	 1.0817920668	 0.12249
H	-0.4749792192	 2.0031842516	 1.4900787077	 0.122275
H	 0.2382824509	 0.4668498531	 2.0083259332	 0.111339
H	-0.2343390747	 1.3254848536	-0.8966855832	 0.100025
H	 0.8000480893	-1.0949925045	 0.0467145489	 0.274901
H	-0.5312078021	-1.3644484359	-2.1692468566	 0.263241
H	-1.8608201611	-2.3674108456	-2.4239310427	 0.250568
H	-4.5916367664	-1.0665473119	 0.9564553203	 0.129313
H	-2.6019360701	 0.6010782422	 1.8473711336	 0.104698
