17
gdb 75630	2.07322	1.88618	1.24271	1.8629	71.05	-0.2346	-0.0057	0.2289	1037.871	0.133957	-458.951557	-458.942692	-458.941748	-458.984888	33.161	
C	-0.0216531192	 1.5555621523	-0.0892355531	-0.497131
C	-0.0407402752	 0.0576942373	-0.0224106878	 0.120136
C	 1.1977806625	-0.7931636024	-0.3136505435	-0.388093
C	 0.6465989374	-1.0576205532	 1.0129343379	 0.38182
O	 1.2943153626	-0.8361345814	 2.1791304953	-0.426805
C	-0.5981271997	-1.9334168443	 0.9327668212	-0.047485
O	-1.2045398729	-2.0871277183	 2.1973243227	-0.456912
C	-1.2473411438	-0.7463325864	 0.1720489793	 0.304645
O	-2.4197894344	-0.4370990357	 0.2114655774	-0.360842
H	 0.8428575974	 1.9553728918	 0.4521826817	 0.131127
H	 0.0404606071	 1.9151845723	-1.1226255352	 0.132865
H	-0.9326816521	 1.9642728265	 0.3562206397	 0.143142
H	 1.1823552915	-1.5605159791	-1.0869491545	 0.122489
H	 2.1059685052	-0.195626691	-0.3150261469	 0.138456
H	 0.6518612146	-1.0473948838	 2.8758796057	 0.307223
H	-0.4750335675	-2.9029713448	 0.4347154206	 0.090992
H	-2.0875557635	-1.6958193697	 2.1220150395	 0.304374
