16
gdb 38297	3.61124	1.78858	1.58724	1.1859	65.97	-0.2565	0.0118	0.2683	850.8471	0.128213	-437.872045	-437.866175	-437.865231	-437.902154	24.394	
C	-0.0268878023	 1.6440715462	 0.1029988037	-0.243069
C	 1.4860645159	 1.3553876414	 0.0520974679	 0.043716
O	 1.2331080763	 0.1089670897	 0.7798079876	-0.299233
C	-0.0245366555	 0.1055357055	 0.0197950778	 0.072486
C	 0.5220438368	-0.2164286657	-1.3977569943	-0.016457
N	-0.2917821677	 0.231522071	-2.5300312001	-0.271147
C	 0.3073668433	 1.2440590403	-3.0054945159	 0.108697
O	 1.4770748577	 1.6695822519	-2.4579740345	-0.234065
C	 1.7332694527	 0.7724247998	-1.3576941894	 0.08026
H	-0.3242713816	 1.9859950556	 1.0940989488	 0.119251
H	-0.5031235973	 2.231631771	-0.6819762855	 0.118547
H	 2.2441032817	 1.9962676615	 0.4998394833	 0.088544
H	-0.8052776711	-0.5277343657	 0.4367905816	 0.092601
H	 0.7724025454	-1.2747952578	-1.4869116108	 0.09602
H	-0.0301571174	 1.8392252575	-3.8472159788	 0.141839
H	 2.7317279931	 0.3517263579	-1.4748512014	 0.10201
