21
gdb 64202	2.44783	1.49064	1.37441	2.4374	78.29	-0.2309	0.0672	0.2981	1090.8924	0.180828	-424.198803	-424.189584	-424.18864	-424.232538	35.368	
C	-0.1507613653	 1.4978141821	 0.0529929426	-0.450588
C	 0.0114119886	-0.0212808488	 0.0490392407	 0.350116
O	-1.2399959182	-0.6670691278	 0.0462101871	-0.468808
C	 1.0914021775	-0.5078491172	-0.9680626753	-0.288188
C	 2.1211775515	-0.5277866323	 0.1954066263	-0.293122
C	 0.9439496644	-0.5402574987	 1.1935292619	 0.437996
C	 0.9307826633	 0.0017165784	 2.6337959512	-0.375385
C	 0.4185019816	-1.4023872772	 3.0022556846	-0.066756
O	 0.6126329536	-1.8679658481	 1.6521282327	-0.310482
H	 0.8103952682	 2.013957401	 0.139558074	 0.120403
H	-0.6154113983	 1.8298465729	-0.884144463	 0.108226
H	-0.7902673078	 1.8154997945	 0.88207488	 0.123291
H	-1.7875710711	-0.2555070927	-0.6309778003	 0.273726
H	 0.8546424331	-1.5167872474	-1.3119760372	 0.11936
H	 1.3003273992	 0.134325072	-1.8278631738	 0.085973
H	 2.7809598867	-1.3939278128	 0.268314862	 0.111429
H	 2.7173359838	 0.3870225888	 0.2585828716	 0.100586
H	 1.9223041056	 0.2405643079	 3.0252191166	 0.108694
H	 0.2559188413	 0.8363049524	 2.8311934466	 0.108102
H	 1.0179387866	-1.9732679064	 3.7204299576	 0.099379
H	-0.6367062844	-1.4458838107	 3.298444604	 0.10605
