19
gdb 13438	3.44055	1.2285	1.08672	3.1025	72.7	-0.2294	-0.0204	0.2091	1159.5052	0.162561	-365.040292	-365.030927	-365.029983	-365.075094	32.851	
C	-0.1655857345	 1.448910074	 0.7230111788	-0.414619
C	 0.0900367161	 0.0237724664	 0.2836138923	 0.002362
C	 0.2832226185	-0.383129697	-1.1445837765	-0.002203
C	 0.2308393519	 0.5853742287	-2.3062439326	-0.420739
N	 1.3982151317	-0.4433967378	-0.1872228876	-0.122158
C	 2.5214330195	 0.4700884688	-0.2956239872	-0.231702
C	 3.7135753568	-0.2585483175	-0.9007331825	 0.161102
O	 4.5861421651	 0.2785845152	-1.5311721284	-0.242365
H	 0.24027035	 1.6198683204	 1.7263792816	 0.126047
H	 0.2731081459	 2.1940665367	 0.0569753313	 0.122214
H	-1.2434659338	 1.6367146724	 0.7710110022	 0.125474
H	-0.3931609724	-0.7055141924	 0.9348172414	 0.089485
H	-0.068922574	-1.3780942704	-1.4172814542	 0.090897
H	 0.4493574292	 1.6179555653	-2.0286951377	 0.124445
H	 0.9393261051	 0.2930322314	-3.0894512844	 0.132767
H	-0.770946627	 0.5701292434	-2.7480558697	 0.126722
H	 2.3619812095	 1.3936113136	-0.8671008959	 0.113877
H	 2.8237628008	 0.7693131047	 0.719255101	 0.130831
H	 3.7142776816	-1.3519100656	-0.6947366322	 0.087564
