16
gdb 130956	6.21881	0.73837	0.70101	2.2215	72.52	-0.2574	-0.0366	0.2209	1543.1856	0.125111	-434.076954	-434.068628	-434.067683	-434.112433	28.307	
O	-0.1729117839	-0.0158759898	-0.0432537526	-0.226306
C	-0.0202217398	 1.1765435017	-0.0719212831	 0.156824
C	 1.3209507054	 1.8749891883	-0.1377494441	-0.278281
C	 1.3866426063	 2.8627668279	-1.3145851565	-0.152067
N	 2.5810401453	 3.6868342368	-1.2679055346	 0.150959
N	 2.6997252904	 4.7022571427	-0.4197861764	-0.234902
C	 3.9367569531	 5.1513895356	-0.6423783801	-0.05613
C	 4.5259284675	 4.3613118131	-1.638247993	-0.060046
N	 3.6466648532	 3.4323703024	-2.0196597705	-0.224564
H	-0.8954938724	 1.867911084	-0.0433130083	 0.078466
H	 1.4438954398	 2.4489471219	 0.7905572168	 0.148885
H	 2.1165141078	 1.1290084622	-0.1998606476	 0.141108
H	 1.4123443496	 2.3372297653	-2.2701283449	 0.156592
H	 0.5229810956	 3.5337113406	-1.3012905485	 0.141385
H	 4.3273648513	 5.9965105096	-0.0986470971	 0.128764
H	 5.5041763108	 4.4176953178	-2.0877438595	 0.129314
