12
gdb 672	6.57145	4.78438	3.30569	1.8478	49.74	-0.2454	0.0022	0.2477	431.9465	0.097836	-269.215705	-269.211119	-269.210174	-269.243333	17.799	
C	-0.0453249989	 1.5316078976	 0.0122761967	-0.283214
C	 1.4076987178	 1.966334368	 0.0398900411	-0.069193
C	 2.2479543957	 0.9314996685	-0.0460814126	-0.077231
C	 1.4820985313	-0.3510099259	-0.0840942392	 0.006562
O	 0.6873336514	-0.5733408173	 1.1052694711	-0.256154
C	 0.0537949529	 0.0101615717	-0.0338105615	 0.046989
H	-0.5980507425	 1.8750830215	 0.8950733016	 0.126456
H	-0.5724998929	 1.9235242193	-0.8671408436	 0.111993
H	 1.699107432	 3.0046762765	 0.1518797967	 0.101946
H	 3.329269649	 0.9843006741	-0.0502262043	 0.101187
H	 1.8676619479	-1.2508882501	-0.5535113209	 0.095796
H	-0.7318645938	-0.5869809939	-0.4889340452	 0.094864
