22
gdb 94166	2.3008	1.36979	1.15199	3.2688	81.84	-0.2365	0.0355	0.272	1209.6589	0.19284	-404.384956	-404.374583	-404.373639	-404.420638	38.435	
C	-0.677532229	 1.1431068061	-0.1112577542	-0.424408
C	 0.2104464143	-0.0900389138	-0.1358623342	 0.035184
C	 1.6405053663	-0.0085897658	-0.7354184411	-0.246974
C	 2.1322907219	-0.9793821629	 0.370628143	-0.282787
C	 0.839095055	-0.6493285197	 1.185990867	 0.224965
C	 1.0883410965	 0.4068731247	 2.2721209687	-0.444756
C	 0.0561243879	-1.8044751037	 1.7988143841	 0.328866
N	 0.80863631	-2.7432968529	 2.4475673821	-0.525879
O	-1.1586473345	-1.8685405102	 1.7469757011	-0.372636
H	-0.1788837916	 2.0013327599	 0.3513951591	 0.106153
H	-0.9568657121	 1.4355248093	-1.1296922816	 0.110325
H	-1.5977758981	 0.9396586126	 0.4448630921	 0.136102
H	-0.3386454738	-0.9096584439	-0.6098854999	 0.085236
H	 1.7697750479	-0.3245456834	-1.7731542761	 0.097166
H	 2.0746817785	 0.9897173161	-0.6240446898	 0.099819
H	 2.1485706554	-2.0170522013	 0.0241068981	 0.101084
H	 3.0897489295	-0.7537060271	 0.8501168302	 0.091218
H	 1.6395247007	 1.2634672563	 1.8720274119	 0.117319
H	 0.1449733324	 0.7719430627	 2.6885876736	 0.135799
H	 1.6784134622	-0.0153684342	 3.0925429652	 0.11113
H	 1.8122955842	-2.7458845123	 2.4040192496	 0.259108
H	 0.3390645664	-3.5400709068	 2.8456972912	 0.257967
