19
gdb 67107	2.57111	2.09068	1.76633	1.1377	78.48	-0.2127	0.0656	0.2784	890.8293	0.161228	-381.945245	-381.938269	-381.937325	-381.976075	29.106	
C	-0.0856454402	 1.4999663344	-0.0939704644	-0.538506
C	-0.0534716726	 0.0047703317	-0.056362841	 0.393752
C	 0.8455775461	-0.9701558512	-0.852604482	-0.136996
N	 1.9391171477	-0.8959772557	 0.2219915811	-0.432742
C	 0.6353687267	-0.9274039767	 0.9770586675	 0.301023
C	-0.131835407	-0.8574456741	 2.2734657138	-0.379772
C	-1.552790447	-0.8504121662	 1.5428004839	-0.161809
N	-1.2775954975	-0.8848681934	 0.0548615594	-0.203507
C	-0.1161709271	-1.844378196	-0.0163694478	-0.042859
H	 0.937677323	 1.8876926427	-0.0925782951	 0.14404
H	-0.5943574271	 1.8562196741	-0.9953104576	 0.131965
H	-0.6104366774	 1.9127881477	 0.7745151452	 0.12078
H	 1.0928483625	-0.9955976125	-1.9140924609	 0.08503
H	 2.4126169463	-1.8012256578	 0.295923593	 0.208749
H	-0.0030262499	-1.7231851827	 2.9277771743	 0.105986
H	 0.0460870843	 0.053252278	 2.8513951186	 0.111487
H	-2.1501416545	-1.7246304167	 1.813863885	 0.108817
H	-2.130715725	 0.0449879566	 1.7837244989	 0.110892
H	-0.2302327913	-2.9298516722	 0.0131957182	 0.073671
