17
gdb 24724	3.7194	1.59483	1.14993	3.7951	83.33	-0.2026	-0.0181	0.1845	1027.1288	0.140932	-380.931353	-380.924712	-380.923768	-380.962293	26.625	
C	-0.0397490368	 1.5087142625	 0.0780173728	-0.274138
C	 1.3781794269	 2.0927323219	-0.020706697	-0.172385
N	 2.124185562	 1.4136921929	-1.0713759116	-0.065826
C	 3.1799265488	 1.8418320182	-1.8150079778	-0.001177
N	 3.7077222759	 0.87241111	-2.5346124549	-0.275925
C	 2.9715565323	-0.2437161631	-2.2268452965	-0.185994
C	 1.9812509423	 0.0579034796	-1.3156294193	 0.295345
C	 0.9186296675	-0.6613452972	-0.6543862887	-0.137257
C	-0.0317520575	-0.0015850535	 0.024117346	-0.107842
H	-0.5022397695	 1.8665309444	 1.0035255669	 0.114716
H	-0.6556182508	 1.9002319068	-0.7451861741	 0.125364
H	 1.3527037929	 3.1639441546	-0.2369801614	 0.123023
H	 1.9010727838	 1.9546602159	 0.9348596318	 0.125869
H	 3.513549235	 2.8694134399	-1.7974042902	 0.126426
H	 3.1752621668	-1.1989649536	-2.6875860813	 0.110016
H	 0.9096138184	-1.7426806411	-0.7383457301	 0.102423
H	-0.8443810679	-0.5359556683	 0.5043188353	 0.097363
