19
gdb 77491	1.94416	1.92176	1.19988	2.848	76.96	-0.242	-0.001	0.241	1111.3241	0.15561	-422.995237	-422.98565	-422.984706	-423.029048	35.339	
C	-0.1134038149	 1.5281614844	-0.0121849837	-0.438968
C	-0.0717896802	 0.0088405444	-0.0113601501	-0.056491
C	 1.1726729539	-0.6795602885	-0.6547881305	 0.259006
C	 1.7735688444	-0.5365489738	-2.0129087587	-0.523269
O	 1.9739412533	-0.2494804156	 0.5376449409	-0.368936
C	 0.6837957436	-0.6919620154	 1.161051771	 0.259007
C	 0.5211484753	-0.5683197292	 2.6389817206	-0.523269
C	 0.8680066234	-1.9162939479	 0.2285128977	 0.411174
O	 0.9130598577	-3.1044818146	 0.2325278104	-0.325892
H	 0.8615771981	 1.9415364947	 0.2531120632	 0.139619
H	-0.3960281957	 1.9073943669	-0.9997153258	 0.120722
H	-0.8548830002	 1.8957516019	 0.7047507754	 0.120722
H	-1.0376726402	-0.4383203527	-0.2744586834	 0.081441
H	 1.9406766989	 0.5154793549	-2.263532931	 0.136592
H	 2.7301209165	-1.0642378933	-2.0634714429	 0.147645
H	 1.103082134	-0.9687486352	-2.7621727777	 0.138331
H	 0.5361582666	 0.4798553093	 2.9529959714	 0.136591
H	-0.4333549899	-1.0078003602	 2.9448010738	 0.138331
H	 1.3248811155	-1.0998197801	 3.1562105795	 0.147646
