19
gdb 38649	2.67721	2.07103	1.46912	2.0055	78.54	-0.2338	0.0096	0.2434	933.6227	0.162635	-385.871271	-385.864657	-385.863713	-385.90207	27.728	
C	 0.0290409039	 1.2350130133	 0.5856942149	-0.261688
C	 1.4480933635	 1.5604521496	 0.0012629535	-0.005045
C	 2.6030433368	 1.8149914746	 0.9698871428	-0.284011
C	 3.0531402173	 0.5803997383	 1.7047579116	-0.048152
C	 2.7123001729	-0.6636259512	 1.368249858	-0.068301
C	 1.8415781391	-0.9853783763	 0.1927602796	 0.082537
O	 0.4410097933	-1.2305722328	 0.5587265689	-0.31334
C	 0.0091032132	-0.0967225728	-0.213087908	 0.123843
C	 1.4420016935	 0.1892771182	-0.7265886911	-0.124323
H	-0.0151425924	 1.0764304345	 1.6655368604	 0.111084
H	-0.7406340347	 1.9554747987	 0.2968649048	 0.097302
H	 1.3824494859	 2.3839552642	-0.7146407167	 0.07172
H	 3.4615959227	 2.2453305043	 0.4328386228	 0.11
H	 2.3081285245	 2.5823272356	 1.6989742451	 0.109285
H	 3.699756194	 0.7408218513	 2.5649972333	 0.090238
H	 3.0595645357	-1.5041304076	 1.963683449	 0.090256
H	 2.2284705704	-1.8584540424	-0.3469756848	 0.077835
H	-0.8620485349	-0.3226078811	-0.8324865146	 0.072849
H	 1.7630101953	 0.1345559316	-1.7659689095	 0.06791
