19
gdb 22966	3.47408	0.76509	0.65733	1.724	76.58	-0.2327	0.	0.2327	1669.361	0.158046	-456.264975	-456.255187	-456.254243	-456.300451	35.042	
O	 0.2102622428	 1.3468708503	-0.2630165821	-0.419638
C	 0.0588492826	-0.0263984734	 0.0596585324	-0.062932
C	-1.3290423832	-0.568278008	-0.2856282091	-0.191468
C	-1.471239959	-2.0495324979	 0.0455703529	-0.077613
N	-1.4900231714	-2.3705846158	 1.5128322203	-0.329237
C	-2.7380450524	-3.1798563944	 1.3753214075	-0.260351
C	-2.847109156	-2.6789242193	-0.0468482539	 0.405875
N	-3.7004591661	-2.6784774115	-0.9778728432	-0.238047
O	-4.8642229262	-3.3703814137	-0.5958106729	-0.39082
H	-0.4049915764	 1.8446153399	 0.2848366893	 0.281372
H	 0.8230042055	-0.5514169095	-0.5258082171	 0.105063
H	 0.2728611633	-0.2159532716	 1.1227178384	 0.098082
H	-2.0903946787	-0.0121379238	 0.2757664424	 0.091669
H	-1.5283549142	-0.4142295765	-1.3520720482	 0.116941
H	-0.7220144398	-2.631027875	-0.5143844042	 0.087066
H	-0.6910701265	-2.9136636878	 1.8190847917	 0.222802
H	-2.6082992701	-4.2686188406	 1.4402607872	 0.119834
H	-3.5429741145	-2.8868989275	 2.0578819724	 0.13248
H	-5.4197020295	-3.2820340038	-1.3778547438	 0.308923
