21
gdb 92628	3.51049	1.27866	1.08061	1.0726	78.06	-0.2524	0.082	0.3344	1194.1312	0.184547	-424.25737	-424.249239	-424.248294	-424.290815	31.437	
C	-0.0206622701	 1.5945540765	-0.1573807607	-0.402936
C	 0.1161855083	 0.0989805101	 0.0100367014	 0.221606
O	 0.6382597321	-0.4860677127	-1.1663121333	-0.272711
C	 1.2580880498	-1.7027419204	-0.7669869884	 0.101286
C	 2.6248195642	-1.9188257128	-1.4364797783	-0.235842
C	 3.531981098	-2.417066308	-0.2943636336	-0.208058
C	 3.0668350967	-1.6001780239	 0.926783201	-0.235644
C	 1.542218524	-1.5034093754	 0.7568968297	 0.101954
O	 1.0396221853	-0.2025561125	 1.0377110829	-0.273278
H	 0.9547912636	 2.0272076087	-0.3918957259	 0.129005
H	-0.717984	 1.8165385918	-0.9689203208	 0.127351
H	-0.3997907769	 2.0395998261	 0.7658255662	 0.127444
H	-0.861652333	-0.3648587082	 0.2479304568	 0.053503
H	 0.5767173193	-2.5459142396	-0.9429544809	 0.069827
H	 2.5842964685	-2.6037801329	-2.2869886289	 0.098004
H	 2.9722178928	-0.9477104321	-1.8037266233	 0.114056
H	 3.3635388389	-3.4871022794	-0.1185614825	 0.100455
H	 4.596828492	-2.2939612822	-0.5102012399	 0.102182
H	 3.3670297084	-2.0392577212	 1.8813956922	 0.098006
H	 3.4714808812	-0.5838073468	 0.8825292936	 0.113807
H	 1.0139678968	-2.2490251251	 1.3660900627	 0.069982
