17
gdb 37211	3.20243	2.01081	1.66683	1.6117	75.89	-0.2312	-0.0207	0.2105	848.5846	0.138322	-384.604336	-384.598289	-384.597345	-384.634375	25.955	
C	 0.0608164983	 1.5463549416	 0.2017024424	-0.268846
C	 1.5325789885	 1.8232733691	-0.0088527817	-0.050927
C	 2.159872929	 0.7847020463	-0.5859498361	 0.032032
C	 3.2543399228	 0.1012356919	 0.2105664877	-0.050244
O	 2.9515718985	 0.1814414947	 1.631756944	-0.251978
C	 2.4665317262	-0.941646801	 0.8957894198	 0.063176
C	 1.0573961828	-1.0274551458	 0.2707893897	-0.080495
C	-0.0073885867	 0.0551647496	-0.1296596582	-0.057231
C	 1.1404468466	-0.2682724619	-1.0281686817	-0.126166
H	-0.1993747028	 1.7914486278	 1.2389679943	 0.121505
H	-0.6342516734	 2.1067162627	-0.439966717	 0.110252
H	 2.0486089023	 2.5701126748	 0.5848053718	 0.110065
H	 4.3052697754	 0.0146405945	-0.0430968755	 0.101734
H	 2.895452221	-1.894890051	 1.1991957277	 0.09663
H	 0.6283447399	-2.0255341266	 0.2961169906	 0.083123
H	-0.9858817791	-0.3800370208	-0.3182994284	 0.083005
H	 1.0916526106	-0.6900963458	-2.0260397896	 0.084366
