19
gdb 64594	3.05116	1.33863	1.24132	2.822	80.75	-0.2318	-0.0307	0.2011	1092.2064	0.158788	-385.898117	-385.889748	-385.888803	-385.931081	32.191	
C	-0.1171449418	 1.6630047674	 0.0941581497	-0.43098
C	 0.0210310038	 0.1380631727	 0.085789596	 0.150466
C	-1.3576594119	-0.5285962795	 0.0666586121	 0.137432
O	-2.403469595	 0.0405879532	-0.1072398173	-0.256384
C	 0.7640050722	-0.418433338	-1.1286183787	-0.133828
C	 1.7014821496	-1.3090427949	-0.7947604702	-0.082138
C	 1.8482878344	-1.4293065667	 0.6838822036	-0.078152
C	 2.2947080045	-0.151753834	 1.3668150332	-0.300553
C	 0.8245123098	-0.4584873573	 1.2544781695	-0.078919
H	 0.8655429552	 2.1408428828	 0.0910719396	 0.113355
H	-0.6762007149	 2.0052835009	-0.7804838242	 0.128902
H	-0.6644915153	 1.9962633485	 0.980390227	 0.124572
H	-1.3147287482	-1.6327978272	 0.2081836318	 0.078179
H	 0.5167587801	-0.0981673681	-2.1343142231	 0.105855
H	 2.3335808068	-1.8434423397	-1.4953366561	 0.104133
H	 2.0722057403	-2.3851372703	 1.14322088	 0.092745
H	 2.7263663869	-0.2393262942	 2.3583866567	 0.115175
H	 2.7299549983	 0.6259446765	 0.7486364078	 0.117811
H	 0.292923875	-0.6902250222	 2.1707972827	 0.092327
