14
gdb 125236	3.21276	1.39959	0.98083	3.5959	69.32	-0.249	-0.0579	0.191	1126.9266	0.100139	-473.831339	-473.823479	-473.822534	-473.86391	29.055	
C	 0.0347396275	 1.5043553435	 0.0466218818	-0.468275
C	-0.0471806882	 0.0112639841	 0.0178902249	 0.424418
C	-1.1692647034	-0.7206879447	-0.17192808	-0.344387
C	-1.1150169003	-2.1619093366	-0.1782341837	 0.337023
O	-2.0462280618	-2.9291472502	-0.337462239	-0.348477
C	 0.2824771372	-2.6492573837	 0.0435555251	 0.323464
O	 0.4389382664	-3.9750244856	 0.0550659756	-0.370056
N	 1.3337998865	-1.9211381341	 0.2218959282	-0.185708
O	 1.1649980218	-0.5392368667	 0.208960156	-0.269606
H	 0.713545264	 1.8635848698	-0.7332827597	 0.158139
H	-0.9515448682	 1.9428265529	-0.1092258551	 0.147358
H	 0.4304807384	 1.8456238194	 1.0083772899	 0.158136
H	-2.1230846686	-0.2317199716	-0.3216289441	 0.126295
H	 1.3783734988	-4.1594947566	 0.2056687201	 0.311677
