19
gdb 53246	7.81959	0.59196	0.57903	3.2111	87.56	-0.2461	-0.022	0.224	1910.1177	0.157057	-385.867068	-385.857093	-385.856149	-385.904132	34.312	
C	 0.5625142639	 1.4528617326	-0.7022949314	-0.498627
C	 0.2502919175	 0.091023438	-0.2930863925	 0.104865
C	-0.0036164956	-1.0387338984	 0.040754982	 0.029079
C	-0.3277856493	-2.3857925705	 0.462146359	-0.147859
C	-0.2287000988	-2.7449942078	 1.9796644109	-0.247596
C	-1.5722815837	-3.5380301094	 1.8725556118	-0.094471
C	-1.8278948	-2.8210256083	 0.5064828682	-0.247606
C	-1.3630989636	-5.0192155391	 1.7219279047	 0.176085
O	-1.9206282647	-5.8668628599	 2.3709608105	-0.260413
H	 1.3610495802	 1.4711131461	-1.4522258241	 0.148924
H	-0.312327555	 1.9476923352	-1.1386450577	 0.148658
H	 0.8937395467	 2.0584456676	 0.1486552285	 0.148463
H	 0.2487207743	-3.1082347681	-0.1263935579	 0.103566
H	 0.6586773278	-3.2972115024	 2.2987214145	 0.113913
H	-0.3426643485	-1.8624530685	 2.6111660859	 0.12395
H	-2.3064859923	-3.3671563161	 2.6607546933	 0.093904
H	-2.4926349834	-1.9646470768	 0.6305663221	 0.123962
H	-2.1886204851	-3.4325898949	-0.3242080193	 0.113905
H	-0.6233797303	-5.3027425392	 0.9334864614	 0.067298
