21
gdb 98617	3.95261	0.99821	0.91817	2.4594	83.88	-0.2292	-0.0079	0.2213	1380.7273	0.182086	-387.085285	-387.076188	-387.075244	-387.120076	33.939	
C	-0.0961655601	 1.5219975684	 0.1918170671	-0.379233
C	 0.0508227801	 0.0202343239	-0.0311475673	-0.281944
C	 0.7188481446	-0.3411366243	-1.3552611495	 0.373471
O	 1.0848590783	 0.5183112052	-2.1323065886	-0.331995
C	 0.8773366887	-1.8064115788	-1.6022828796	-0.100735
C	 0.7156777287	-2.5065222487	-2.9451444495	-0.075865
C	 1.2532407588	-1.6744576018	-4.1185078003	-0.219211
C	 2.6522527495	-1.6405402954	-3.4222222531	-0.219198
C	 2.0726438539	-2.4736231627	-2.2697645204	-0.075876
H	 0.8794760849	 2.0145944336	 0.1821909911	 0.130336
H	-0.6943130166	 1.9769448543	-0.6018169247	 0.130354
H	-0.5791527616	 1.7264749115	 1.1515588122	 0.106707
H	 0.6341560112	-0.4480577386	 0.7746415182	 0.120706
H	-0.9251093184	-0.485333906	-0.0019735456	 0.120724
H	 0.4885043963	-2.4177319778	-0.7912608398	 0.084624
H	 0.0080318074	-3.324103608	-3.0231839513	 0.088088
H	 1.2677255539	-2.2523970085	-5.0454988223	 0.0981
H	 0.7733729419	-0.7122288636	-4.2968054799	 0.12238
H	 3.4051332255	-2.2006427617	-3.9816805237	 0.098095
H	 3.0460647386	-0.6571416938	-3.1657496058	 0.122384
H	 2.5928419243	-3.2614370273	-1.7368140271	 0.088086
