20
gdb 120701	2.98941	0.84407	0.77752	2.6699	76.16	-0.2474	0.016	0.2634	1567.6634	0.169581	-440.308486	-440.29848	-440.297536	-440.344227	36.089	
C	-1.0264797414	 1.299307386	-0.5751504681	-0.382467
C	-0.5178282565	-0.139438111	-0.4600467992	-0.162495
C	 0.8883916798	-0.3224283051	-1.0503279084	-0.222054
C	 1.384262155	-1.7392732217	-0.9097151112	 0.078992
O	 0.8242114156	-2.7421836511	-1.7736086742	-0.269182
C	 2.2209176112	-2.4501352501	-1.8975810919	-0.054341
C	 2.7049841918	-1.8211736158	-3.1842608379	 0.35562
N	 1.7190748834	-1.5643409332	-4.0860664876	-0.516794
O	 3.884049578	-1.5843987321	-3.359049705	-0.360484
H	-0.3666398872	 1.9971381649	-0.0478208238	 0.11679
H	-1.0758699161	 1.6197717254	-1.621665173	 0.116306
H	-2.0288146094	 1.401101647	-0.148250513	 0.115448
H	-0.5117624675	-0.4452752197	 0.5943845814	 0.097891
H	-1.2077729608	-0.821523302	-0.9713725324	 0.109938
H	 0.8944825928	-0.0282355526	-2.1043190617	 0.11214
H	 1.596816278	 0.3379222468	-0.5321449521	 0.110141
H	 1.4820655205	-2.0839112149	 0.1222165065	 0.100068
H	 2.8982510874	-3.2210703199	-1.5335883065	 0.118698
H	 0.7919080834	-1.9175066362	-3.9156634778	 0.271881
H	 1.9768641119	-1.2368962246	-5.0021912239	 0.263904
