17
gdb 83918	2.66647	1.47137	1.20826	1.4318	74.88	-0.2328	0.0426	0.2754	1066.6035	0.135593	-421.772179	-421.764118	-421.763174	-421.804521	31.54	
O	-0.0339291914	 1.3853444502	 0.0014089944	-0.423157
C	-0.0437894501	 0.002352671	-0.0238131864	 0.056296
C	-0.4599669698	-0.7362682262	 1.2094954559	-0.026185
O	-1.0280965595	 0.1073459984	 2.1794303348	-0.283784
C	-2.4443868009	 0.1928775998	 1.9243824098	-0.076184
C	-2.6057533097	 0.070889695	 0.3993712992	-0.323861
C	-1.386269268	-0.771105275	-0.0056036726	 0.099823
C	-1.5339886759	-1.9352742773	-0.8175697952	 0.169681
C	-1.6444780851	-2.9133548177	-1.5107041494	-0.383068
H	-0.2088904558	 1.6346735208	 0.9211246488	 0.296829
H	 0.7300344652	-0.4243171389	-0.6541897798	 0.115152
H	 0.054047509	-1.6133649568	 1.5888780439	 0.113759
H	-2.9564364726	-0.6293223739	 2.4424881234	 0.111791
H	-2.7936795296	 1.1422563456	 2.3379964148	 0.116512
H	-3.5360465688	-0.426234607	 0.1210048994	 0.122303
H	-2.5708797027	 1.0509180307	-0.084931268	 0.127787
H	-1.7458627744	-3.7741672387	-2.123664833	 0.186307
