17
gdb 74370	2.7741	1.33207	1.09332	4.2056	74.02	-0.265	0.0036	0.2686	1146.2108	0.137037	-418.045021	-418.036631	-418.035687	-418.078376	30.608	
C	 0.0356476542	 1.4800879428	-0.0443855317	-0.451809
C	-0.0570418073	-0.0145371107	 0.031085262	 0.407806
N	-1.181690168	-0.6089079756	-0.0372499333	-0.303527
C	-1.2008428839	-2.0732768153	-0.0173935569	-0.127519
C	 0.1542480174	-2.6963148434	-0.4064677061	-0.249667
C	 1.2423440915	-1.9814898321	 0.3778922106	-0.083624
O	 1.1753119191	-0.5641013058	 0.162790769	-0.252393
C	-1.6302311004	-2.548458502	 1.3101659719	 0.293653
N	-1.9394259931	-2.9384957025	 2.3531639629	-0.329516
H	 0.6949748722	 1.7745826402	-0.8667140598	 0.142488
H	-0.9569047283	 1.9018136893	-0.1937527753	 0.15123
H	 0.4717253847	 1.875192387	 0.8784390737	 0.146547
H	-1.9692040663	-2.396396474	-0.7296102804	 0.134281
H	 0.1759196368	-3.7703230354	-0.2042236098	 0.13081
H	 0.3079555345	-2.5467998554	-1.4797983835	 0.124511
H	 1.137528212	-2.1771589703	 1.4521429915	 0.139417
H	 2.2444549351	-2.2820158268	 0.0658609152	 0.127311
