21
gdb 100649	2.47225	1.09474	0.96169	5.636	78.9	-0.2532	0.0336	0.2868	1351.9559	0.180047	-420.414513	-420.403458	-420.402514	-420.450231	40.313	
C	-0.0028802213	 1.6310314312	-0.0225413139	-0.383385
C	 0.027357763	 0.0998758801	 0.0290322997	-0.218548
C	 0.7337866042	-0.5065327055	-1.1896533073	 0.121894
O	 2.0872126568	-0.0900449672	-1.2716460094	-0.421394
C	 0.6153982642	-2.0715611018	-1.2879226991	 0.049274
C	 1.2827134646	-2.785467768	-0.0976053756	-0.418138
N	-0.7648225098	-2.5601737051	-1.4038292169	-0.522646
C	 1.3147631704	-2.477329004	-2.5279742653	 0.314513
N	 1.841046405	-2.7935542565	-3.5062364912	-0.341962
H	 1.0079623938	 2.0360527086	-0.1157598934	 0.132777
H	-0.5809625445	 1.9827515857	-0.883621904	 0.121756
H	-0.4597467555	 2.0451904029	 0.8807156734	 0.115593
H	 0.5385692547	-0.2282468053	 0.9446204496	 0.096334
H	-0.9964370892	-0.2855902462	 0.0917898573	 0.092403
H	 0.2655771385	-0.1079339508	-2.0993037497	 0.095835
H	 2.5043044323	-0.2412931976	-0.4164692814	 0.284606
H	 0.7607707621	-2.5415219153	 0.8324669822	 0.120962
H	 1.2365100007	-3.8658516912	-0.243877422	 0.154413
H	 2.3312604202	-2.494727563	-0.0013913163	 0.129761
H	-1.2679733411	-2.3844416134	-0.5404007354	 0.235525
H	-1.2561469092	-2.0768232276	-2.1502924412	 0.240427
