15
gdb 4154	3.76675	1.40466	1.15112	2.1314	66.29	-0.2458	-0.0312	0.2147	1018.1858	0.11689	-399.753014	-399.744986	-399.744042	-399.786311	28.329	
O	-0.2118624564	 1.4011098889	-0.0457400667	-0.388045
N	-0.0150052576	 0.0424542165	 0.2506489842	-0.226956
C	-1.0681550293	-0.6263252829	 0.0364283628	 0.406277
C	-2.4829077023	-0.3606755722	-0.4330695766	-0.317028
C	-2.7943596709	-1.8740579288	-0.194226436	-0.236548
C	-1.3134865211	-2.1216038099	 0.2162915226	-0.187921
C	-0.485235758	-2.9648310481	-0.7350373586	 0.144549
O	-0.9285294837	-3.5624070672	-1.6805982692	-0.231786
H	 0.6462530775	 1.7833846173	 0.1681076606	 0.309692
H	-3.0339972872	 0.3503555834	 0.1885283873	 0.132168
H	-2.5515652621	-0.0266007066	-1.4726498556	 0.136625
H	-3.5127592819	-2.0626483757	 0.6039894776	 0.112638
H	-3.081924416	-2.434495492	-1.0839339497	 0.136426
H	-1.1349266978	-2.4791701189	 1.2371241481	 0.113288
H	 0.6015331467	-2.9697455439	-0.5019525008	 0.096622
