16
gdb 20942	7.41432	1.13897	1.00307	1.5029	67.43	-0.2024	0.0224	0.2248	1150.0641	0.133026	-376.129513	-376.121788	-376.120844	-376.162234	27.668	
C	 0.0385081785	 1.4859643514	 0.0460129195	-0.399596
C	-0.0961082695	-0.0256045164	-0.102601706	-0.103765
N	 0.7656497596	-0.5134262804	-1.1692633222	-0.38136
C	 0.8574531299	-1.860121924	-1.4105161836	 0.44937
N	 0.4861719018	-2.7884021769	-0.5338517394	-0.31387
N	 0.8234528677	-3.9358039184	-1.1985912857	-0.187226
C	 1.346241723	-3.6446873704	-2.3993382126	 0.023738
N	 1.3876311905	-2.3392737357	-2.580555617	-0.339566
H	 1.0731876349	 1.7661793828	 0.2642393919	 0.12892
H	-0.2673221942	 2.0037939926	-0.8707508138	 0.11415
H	-0.5985492754	 1.8482413379	 0.857611425	 0.121165
H	 0.2040888432	-0.5274172348	 0.8225064872	 0.130609
H	-1.1495178655	-0.3000495149	-0.2743616538	 0.096669
H	 0.7713139286	 0.0337379193	-2.0176891025	 0.242419
H	 0.6545775079	-4.8289708001	-0.769106339	 0.276825
H	 1.6787893391	-4.3966493719	-3.0994992881	 0.141518
