17
gdb 51302	3.03906	1.08501	0.88094	4.0645	76.93	-0.2453	-0.0534	0.1919	1309.9675	0.134906	-421.879225	-421.870537	-421.869593	-421.914061	30.668	
O	-0.5581904171	 0.6176081945	 0.6672192172	-0.233833
C	 0.1988060953	 0.8906586228	-0.2266458033	 0.152856
C	 1.3645752585	 1.8639802881	-0.0876276549	-0.385402
C	 1.3213207641	 2.9285032914	-1.143043973	 0.191547
C	 0.9766654445	 4.2198593213	-1.0352501835	-0.153823
C	 1.0589423191	 4.9777457547	-2.3368012931	-0.264972
C	 1.5325178135	 3.9243919488	-3.3577264313	-0.328386
C	 1.6825870078	 2.6282699164	-2.5536779052	 0.338492
O	 2.0311991285	 1.5488356939	-2.9782349375	-0.337579
H	 0.1005542334	 0.4386077726	-1.2360724371	 0.103472
H	 1.3521276988	 2.2782438407	 0.9227776798	 0.124648
H	 2.28192722	 1.2747461439	-0.2271495899	 0.143804
H	 0.6700353644	 4.7033283185	-0.1128557351	 0.118535
H	 0.0859451864	 5.4113234372	-2.5978491743	 0.126864
H	 1.7513680503	 5.8239902609	-2.2527658831	 0.125617
H	 0.8213132491	 3.7651239048	-4.1732884639	 0.13929
H	 2.4905768234	 4.1761429295	-3.8216294719	 0.13887
