17
gdb 57111	3.03015	1.20608	0.93765	1.6312	70.08	-0.2527	0.0268	0.2795	1225.7721	0.134498	-458.912966	-458.903955	-458.903011	-458.947371	32.387	
O	-0.184997242	 1.3527171501	 0.049456051	-0.421849
C	 0.0366533353	-0.0558967789	 0.070334758	-0.069837
C	 0.6198357839	-0.5334427795	-1.1811844886	 0.293905
C	 1.1407660512	-0.8635663452	-2.2128676517	-0.435098
C	 0.9081163249	-0.4357832843	 1.2899446673	 0.096751
C	 0.2142366753	-0.0907918895	 2.6180226846	-0.136121
O	-0.4542139901	-1.3032223331	 2.9436448828	-0.23604
C	 0.4346110358	-2.3069278639	 2.534903513	 0.02479
O	 1.0670274156	-1.8498459036	 1.348835417	-0.265933
H	 0.5687220766	 1.7594671826	-0.3919349651	 0.289773
H	-0.9489046761	-0.512838597	 0.2197648743	 0.128347
H	 1.5859168577	-1.1763954367	-3.1251266167	 0.20193
H	 1.8893646891	 0.044608038	 1.1930766828	 0.083544
H	 0.9503185452	 0.173125742	 3.3915857839	 0.095878
H	-0.5209392248	 0.7090300806	 2.5254723663	 0.140996
H	 1.2000792151	-2.4991424327	 3.3079889218	 0.087499
H	-0.1298920928	-3.220813039	 2.3265546891	 0.121465
