17
gdb 87446	4.34394	1.20736	1.10543	1.2212	72.18	-0.2365	0.0628	0.2994	1098.8009	0.13436	-421.691763	-421.684153	-421.683208	-421.724095	29.545	
O	 0.2060714059	 1.3826563294	-0.052309065	-0.428054
C	 0.0977564021	-0.0118289039	 0.021815606	 0.059166
C	-0.3668129035	-0.7212859042	 1.2857251344	-0.412276
C	-1.2126986994	-0.712385794	 0.038303408	 0.332124
C	-2.6309309466	-0.1872486827	-0.1977147429	-0.223825
C	-2.6754344879	-0.8046619117	-1.6345649837	 0.113654
O	-3.9345610381	-1.5079875893	-1.4251755034	-0.333502
C	-3.2253178158	-1.6360784477	-0.1599358954	 0.114913
C	-1.8169473652	-1.8263827343	-0.8149546	-0.224377
H	-0.611873079	 1.7706020154	 0.2745268814	 0.283941
H	 0.9205163985	-0.4637171457	-0.5245648137	 0.108012
H	 0.1391699092	-1.6342826811	 1.5859849582	 0.11552
H	-0.6850816069	-0.0956643199	 2.1157417041	 0.11115
H	-3.1227785128	 0.7259741143	 0.1388345877	 0.085359
H	-2.4808880433	-0.3425734325	-2.6014159641	 0.106014
H	-3.6969148474	-2.1765394837	 0.6598449007	 0.102387
H	-1.3792161596	-2.7561789284	-1.1759907922	 0.089793
