18
gdb 54861	3.08812	1.47219	1.14342	1.7997	76.26	-0.2262	-0.0157	0.2105	1085.1643	0.146998	-401.942131	-401.933853	-401.932909	-401.975905	30.941	
C	 0.7959377309	 0.1000189051	 1.2680947336	-0.470342
C	 0.0026211622	 0.2341832819	-0.0147760295	 0.370903
O	 0.2819691803	 1.037721433	-0.8739322593	-0.298091
C	-1.2305792237	-0.6694355143	-0.1544609143	-0.12335
C	-1.7479333241	-0.8462127542	-1.5653580179	-0.082535
C	-1.9323520501	-2.1388651651	-1.828551306	-0.09268
C	-1.4916871894	-2.9683245165	-0.669976853	-0.067799
C	-0.0418296178	-2.8519071355	-0.3401837943	-0.247487
N	-1.0304921561	-2.0380040231	 0.3881465129	-0.113074
H	 1.5389024621	 0.8965579318	 1.3239740852	 0.13729
H	 0.1302808927	 0.1337186626	 2.1366763799	 0.143644
H	 1.2947864776	-0.8740220759	 1.3001053819	 0.154793
H	-1.9973478678	-0.1838530631	 0.4749755273	 0.113596
H	-1.9014694901	-0.0130881343	-2.2371871544	 0.122074
H	-2.3111889306	-2.5612090805	-2.7507660702	 0.108829
H	-2.063417991	-3.8381186333	-0.3581503774	 0.100072
H	 0.4458517062	-3.6032713165	 0.2750699145	 0.11848
H	 0.5911481188	-2.3757068019	-1.085827409	 0.125677
