18
gdb 71413	3.41626	1.29108	1.22137	1.3029	81.01	-0.2461	0.0379	0.284	1099.0686	0.14734	-364.727248	-364.719297	-364.718353	-364.759453	31.326	
C	-0.1263715962	 1.4901304214	 0.0632837297	-0.49932
C	 0.0795274045	 0.0106617319	-0.0365247055	 0.343711
C	 0.0733569478	-0.8459426454	-1.2956441518	-0.293247
C	-0.2336605993	-1.9965899625	-0.3264764911	-0.024499
C	 1.0383281738	-2.1898379349	 0.5473963416	-0.161598
C	 2.3277589849	-2.448153627	-0.0666952169	 0.293721
C	 3.3923412636	-2.6541644632	-0.5871882983	-0.445968
C	 0.6718157009	-0.803900663	 1.0699431065	-0.104268
N	-0.781860894	-0.9758603723	 0.7176125651	-0.205643
H	 0.7548483161	 2.0311880285	-0.2993028769	 0.1256
H	-0.9894647203	 1.8059988855	-0.5318167304	 0.125809
H	-0.304980886	 1.7881125295	 1.1009542753	 0.130017
H	-0.7967982188	-0.6089812432	-1.9141769782	 0.108378
H	 0.9724661548	-0.9111151318	-1.9152227372	 0.111088
H	-0.8386698875	-2.8535081543	-0.6139638207	 0.088393
H	 0.8245234832	-2.9292092064	 1.3264870001	 0.11392
H	 4.33463855	-2.8377882227	-1.0411412061	 0.196454
H	 0.9774159227	-0.3633422401	 2.0124945348	 0.097452
