17
gdb 126413	4.62498	1.02549	0.84809	3.6147	79.25	-0.2333	-0.0583	0.1751	1331.685	0.137596	-418.058774	-418.050668	-418.049724	-418.09187	30.302	
C	 0.1059643468	 1.5723422375	 0.0076736509	-0.373164
C	-0.0106554394	 0.0488083022	 0.0029050543	-0.272376
C	-1.4245949795	-0.4830613381	 0.0129552306	 0.331323
N	-2.4129960162	 0.366777207	 0.0235107605	-0.253292
N	-3.6559171668	-0.1387908135	 0.0321198223	-0.26517
C	-4.0634760925	-1.4766793709	 0.0314568284	 0.422224
O	-5.2454382415	-1.7728171801	 0.0401695253	-0.392799
C	-2.9266140483	-2.3867481971	 0.0195295226	-0.200085
C	-1.6639412591	-1.9009385191	 0.0107134419	-0.120369
H	 1.1583283226	 1.8696671424	-0.0000913286	 0.109604
H	-0.3837996998	 2.0079590745	-0.8668291287	 0.130436
H	-0.3689311437	 2.001314853	 0.8935958531	 0.130401
H	 0.5048649796	-0.3642254808	-0.8753925137	 0.118157
H	 0.5197759766	-0.3708881882	 0.8690659484	 0.118125
H	-4.3962001133	 0.5507741065	 0.0401987908	 0.272594
H	-3.151095193	-3.4468415434	 0.0182293194	 0.130293
H	-0.8103537625	-2.5730252218	 0.0018018225	 0.1141
