16
gdb 31545	3.33251	1.13073	0.86333	2.7867	70.28	-0.1663	0.0466	0.2129	1293.8965	0.122665	-475.025641	-475.016096	-475.015152	-475.060408	33.745	
C	-0.1533844159	 1.4020262953	 0.2238131847	-0.330553
N	 0.3822968015	 0.080866781	-0.1004833989	-0.384761
C	 0.7963139825	-0.7325166436	 0.9398615516	 0.444264
C	 0.7414976336	-2.0815725501	 1.1409345611	-0.44664
C	 1.4664732386	-2.3192258769	 2.3635792057	 0.218948
O	 1.7037815601	-3.5116882288	 2.9798666387	-0.446806
C	 1.8903615409	-1.1142651122	 2.8177771098	 0.23847
O	 2.4956596597	-0.7113393538	 3.9512492944	-0.417749
O	 1.4761781209	-0.1224868358	 1.9374793169	-0.199269
H	 0.6010487546	 1.9724163801	 0.7683069946	 0.153497
H	-0.3721513207	 1.9278740073	-0.7084013228	 0.123602
H	-1.0666960056	 1.3679845546	 0.836778557	 0.115139
H	-0.1962370546	-0.4310886446	-0.7513500874	 0.240467
H	 0.259795855	-2.8136824529	 0.511206989	 0.090294
H	 1.2282599699	-4.1978698963	 2.504095912	 0.297711
H	 3.4295675394	-0.5339714835	 3.7811843836	 0.303387
