18
gdb 31613	2.36877	1.31237	0.85435	3.1709	76.41	-0.1766	0.0483	0.2249	1313.5613	0.146393	-439.101043	-439.091157	-439.090213	-439.136833	34.787	
C	-0.0775835454	 1.4364880418	 0.0642415029	-0.339519
N	 0.0359334443	-0.0041271437	 0.0291054357	-0.058972
C	 0.0144491765	-0.7628858638	-1.1307368374	-0.202714
C	 0.0443928119	-2.0852162524	-0.7588728831	 0.313337
O	 0.0553046938	-3.1293664298	-1.6411835777	-0.451506
C	 0.0717001183	-2.1431023102	 0.6604849699	-0.382532
C	 0.0624342851	-0.8405514898	 1.1153746528	 0.323906
C	 0.0579883956	-0.3316637281	 2.52194194	-0.189347
O	 0.2999993509	-1.4293585583	 3.3841304593	-0.408786
H	 0.6231428998	 1.864477927	 0.7878581078	 0.135515
H	 0.1687126235	 1.8366628983	-0.9210829502	 0.142055
H	-1.091046304	 1.7658162752	 0.3271277988	 0.132167
H	-0.0120892807	-0.3015698627	-2.1033387268	 0.111572
H	 0.0808768918	-3.9462352589	-1.135389851	 0.294242
H	 0.1132950335	-3.0213501991	 1.2853743746	 0.101447
H	 0.8284708939	 0.4499290537	 2.6498379544	 0.093321
H	-0.9096709024	 0.1473206843	 2.7577880969	 0.095756
H	 0.1683804038	-1.1299640837	 4.2878495131	 0.290057
