16
gdb 41255	3.0285	2.15728	1.7246	2.5974	67.13	-0.2394	0.038	0.2774	812.7924	0.126675	-437.755996	-437.750164	-437.74922	-437.785906	24.823	
C	 0.0546201814	 1.5035665509	-0.1107834173	-0.208093
O	 1.4760061119	 1.4052567842	 0.2209593206	-0.30622
C	 1.2560809139	 0.0671105562	 0.7388490572	 0.192491
C	 1.8515962513	-1.2227593417	 0.168561033	-0.020795
O	 1.9312416324	-0.96876197	-1.2511570828	-0.266125
C	 0.5075044878	-0.9713071434	-1.2215381806	 0.066635
C	 0.3998792101	-1.9507914151	-0.0572275704	-0.06434
N	-0.7161096137	-1.1746043201	 0.6160707971	-0.393509
C	-0.0279800871	-0.0246808303	-0.0532010043	 0.17765
H	-0.5062701008	 2.0326195766	 0.6698915627	 0.114873
H	-0.1054146771	 1.9787166814	-1.0835165257	 0.115249
H	 1.1374037317	 0.0593098779	 1.8260074047	 0.09224
H	 2.7287758647	-1.7152652212	 0.5833645536	 0.089736
H	-0.0029436047	-1.0155222012	-2.1838961491	 0.091685
H	 0.3399135986	-3.0359240697	-0.1121651987	 0.096256
H	-1.5619424704	-1.4376865844	 0.1044242699	 0.222264
