20
gdb 12522	3.04823	1.88281	1.31862	0.0403	82.63	-0.2324	0.0243	0.2568	1000.6441	0.178856	-311.88017	-311.872259	-311.871315	-311.91289	30.406	
C	-0.8484716305	 1.2975500671	 0.084248603	-0.379897
C	 0.0456593865	 0.0328470416	-0.0003975571	-0.077473
C	 0.6683104001	-0.0379955794	-1.3721055998	-0.043298
C	 1.9222341218	 0.1744068506	-1.7682189465	-0.072235
C	 3.1225028503	 0.4993722031	-0.9158458621	-0.247487
C	 3.2976329395	-0.3923264628	 0.323640493	-0.241306
C	 2.2277884139	-0.2565703061	 1.3752888434	-0.08011
C	 0.9169296726	-0.0676362023	 1.2260553768	-0.030017
H	-0.2374997019	 2.2034196902	 0.0294835279	 0.123353
H	-1.5679955289	 1.3218711122	-0.7400538926	 0.111889
H	-1.4090585951	 1.3178812383	 1.0246790305	 0.111028
H	-0.6494055907	-0.8213991762	 0.0674009589	 0.090755
H	-0.0649188154	-0.2440326187	-2.151812285	 0.080395
H	 2.1145603633	 0.1135399875	-2.8378292201	 0.08075
H	 4.024297697	 0.4167221238	-1.5327950928	 0.095041
H	 3.0776519408	 1.5474818936	-0.5898726474	 0.112366
H	 3.3689494874	-1.440342029	 0.0001732868	 0.11262
H	 4.2650244561	-0.159509947	 0.784750991	 0.095408
H	 2.5889759172	-0.3358368195	 2.3995069094	 0.079845
H	 0.3321841362	 0.0017954329	 2.1439213026	 0.078374
