17
gdb 62482	2.39509	1.56911	1.29381	3.4635	68.67	-0.2591	0.0029	0.262	1047.7264	0.133318	-458.970199	-458.961322	-458.960378	-459.003454	33.086	
C	-0.1769122542	 1.5126526049	 0.0232922574	-0.456571
C	-0.0671482156	-0.0048067814	 0.0159599148	 0.072619
O	-1.2926813529	-0.6412891436	-0.2596803771	-0.459784
C	 1.1452149587	-0.5606500638	-0.7768527045	 0.427494
O	 1.5129683788	-0.6072733291	-1.9062721608	-0.338041
O	 1.7634049055	-1.0659641518	 0.3401458608	-0.276784
C	 0.6567792419	-0.6604896077	 1.1898621317	 0.469545
C	 0.8615310844	-0.2432237856	 2.6001625437	-0.346062
C	 0.1314268755	-1.540055968	 2.2596316373	-0.32404
H	 0.7724072894	 1.9796116812	 0.2999523204	 0.138179
H	-0.4531392456	 1.875340761	-0.9726729976	 0.131206
H	-0.9470560427	 1.8264569609	 0.7343379319	 0.13236
H	-1.6106043673	-0.3210491127	-1.1116785354	 0.293516
H	 1.8657892242	-0.3268164907	 3.0007020447	 0.136082
H	 0.2879659976	 0.5962440907	 2.9794617784	 0.125421
H	-0.9447218926	-1.5853293523	 2.3847223671	 0.138905
H	 0.6573481649	-2.4706193819	 2.4413662472	 0.135954
