19
gdb 107448	3.42213	1.31264	1.15642	3.4762	74.5	-0.2229	0.0563	0.2792	1107.6934	0.16144	-419.148622	-419.140855	-419.139911	-419.180693	31.043	
O	 0.5273317044	 0.6799464886	-0.9308746418	-0.40986
C	-0.0165201148	 0.219111419	 0.296651776	-0.201973
C	-1.4451924315	-0.2640137781	 0.1651618579	 0.343323
N	-1.8364412596	-1.0528892655	-1.0145205454	-0.346878
C	-2.4299770846	 0.2857856943	-0.8117814716	-0.10009
C	-3.8250910361	 0.2933438872	-0.1845338839	-0.221266
C	-3.6410802616	-0.2621802143	 1.2295006524	-0.038974
N	-3.2172822268	-1.6733113443	 1.2935440953	-0.307096
C	-2.2063687852	-0.6068534747	 1.4351723135	-0.126583
H	 0.107215848	 1.5199435232	-1.1415812364	 0.28887
H	 0.6262643916	-0.6131833584	 0.6078709857	 0.123909
H	 0.0490358513	 0.98958219	 1.0808351017	 0.095211
H	-1.0841432166	-0.9508964556	-1.6966253738	 0.23212
H	-2.1712665176	 1.0673954592	-1.5217900903	 0.06707
H	-4.1989475179	 1.321870278	-0.1289630788	 0.094774
H	-4.5382537311	-0.2971930516	-0.7673878225	 0.121938
H	-4.2578533832	 0.1304285858	 2.0327240433	 0.083154
H	-3.4371656339	-2.0403367692	 2.217374259	 0.226701
H	-1.7088081649	-0.4693987535	 2.3904349297	 0.075649
