20
gdb 11377	4.20378	1.24719	1.124	1.711	77.32	-0.235	0.0248	0.2598	1146.7718	0.177326	-349.025043	-349.016581	-349.015637	-349.058153	31.921	
C	 0.0302351097	 1.4682146673	 0.2757751147	-0.373172
C	-0.0442484647	-0.0148962724	-0.1295951077	-0.295414
C	-1.4376350971	-0.570013147	-0.1030379357	 0.341306
C	-2.1443216264	-1.0311752581	-1.1410039254	-0.189817
C	-3.5326405931	-1.4720737414	-0.7419096526	-0.272826
C	-3.4158109814	-1.6047889069	 0.7979752213	 0.130565
O	-3.1180004336	-2.9411899124	 1.1827616856	-0.437005
C	-2.2643664199	-0.6388135825	 1.1697840835	-0.321911
H	 1.0627548177	 1.8287202844	 0.2407135027	 0.114068
H	-0.5694669326	 2.0876870147	-0.3986104073	 0.120021
H	-0.3425805745	 1.6238409782	 1.2930457309	 0.121301
H	 0.3794670357	-0.1418692955	-1.1322633462	 0.1006
H	 0.5911586117	-0.5951639717	 0.5548233166	 0.101394
H	-1.785781798	-1.0603698584	-2.1650317155	 0.083596
H	-4.2837657419	-0.7209838336	-1.0256454212	 0.104206
H	-3.8516611262	-2.4218599931	-1.1848404289	 0.105732
H	-4.3485056501	-1.3654378177	 1.3143008165	 0.080672
H	-2.3072964138	-3.1929064972	 0.7251432715	 0.277538
H	-1.7118202791	-1.0145222441	 2.0388245647	 0.103611
H	-2.6474396324	 0.3545350473	 1.4422087925	 0.105532
