19
gdb 92489	2.5546	1.68871	1.66427	2.6105	69.	-0.2457	0.0692	0.3149	941.0308	0.162595	-460.171764	-460.164483	-460.163539	-460.203534	29.288	
O	 0.0872819741	 1.4202032272	 0.0642634287	-0.442234
C	 0.0205748621	 0.0059364747	 0.0462717384	 0.120794
C	-1.4363980166	-0.543128502	 0.0205721428	-0.253322
C	-1.6208345653	-1.344680448	-1.2792544101	-0.072626
C	-1.2852113679	-0.442073851	-2.4712977763	-0.072628
O	 0.0698490223	 0.0305666051	-2.3478274063	-0.292183
C	 0.7189304494	-0.5328321808	-1.212921896	 0.167351
O	 0.722460206	-1.9364554086	-1.242952185	-0.269522
C	-0.6025618016	-2.4877284819	-1.2838413838	-0.060281
H	-0.0515478164	 1.7047186612	-0.8486716333	 0.284561
H	 0.5565909613	-0.3392981404	 0.9345005993	 0.093167
H	-1.6361631084	-1.178460713	 0.8892108989	 0.102527
H	-2.1259494773	 0.3049986616	 0.0671870094	 0.107528
H	-2.6366009132	-1.7386430572	-1.3771496246	 0.077409
H	-1.3743341438	-0.9900467097	-3.4183404803	 0.106851
H	-1.9557259668	 0.4258393693	-2.5162179445	 0.101302
H	 1.7597172156	-0.210105135	-1.2705970854	 0.096778
H	-0.7393949028	-3.1479847453	-0.4172647749	 0.100864
H	-0.6924588808	-3.095438306	-2.193690957	 0.103662
