15
gdb 67117	2.67669	2.12838	1.77301	1.4869	63.57	-0.2283	0.061	0.2893	814.6603	0.112404	-457.626555	-457.620034	-457.61909	-457.657064	26.692	
O	 0.2211504139	 1.3746828003	 0.1256497161	-0.465393
C	 0.1798890417	 0.0127323647	 0.0013375696	 0.392705
C	 0.2942586642	-1.0024454738	 1.1513863378	-0.069441
O	-1.1747277349	-0.9883977426	 1.4745009529	-0.384754
C	-1.0834805126	-0.9380389877	 0.0350814612	 0.336691
C	-1.784990193	-0.8200791158	-1.2960105137	-0.191687
O	-0.5769552467	-0.7989259252	-2.1080398044	-0.306673
C	 0.5484059023	-0.9028687817	-1.1672950897	-0.039339
C	 0.1178711945	-1.908518052	-0.0972719287	-0.110611
H	-0.0212779194	 1.7641323349	-0.7230876888	 0.298819
H	 0.9704727041	-1.0746064557	 2.0001235494	 0.109056
H	-2.409531748	-1.6738300908	-1.5767985398	 0.121589
H	-2.3477462032	 0.1113195237	-1.4277207687	 0.113781
H	 1.4720251624	-0.9126309534	-1.741219211	 0.092141
H	 0.0442837848	-2.9905187948	-0.1320771622	 0.103115
