17
gdb 70507	2.73696	1.59548	1.1675	3.4438	76.61	-0.2364	-0.0674	0.169	1055.1806	0.135781	-421.836802	-421.829038	-421.828094	-421.868811	30.458	
O	-0.008159787	 1.4171024835	 0.0429323743	-0.474233
C	-0.0089653082	 0.030142896	 0.029548756	 0.335463
C	-0.4279617344	-0.7488102892	-1.1989463881	-0.340848
C	-1.2859771548	-0.7783244927	 0.0538866143	-0.109456
C	-1.0836811363	-1.9395419149	 1.0292913135	-0.276706
C	 0.354163091	-1.7956695799	 1.4681390666	-0.166386
C	 0.929357298	-0.7009371828	 0.9429487247	 0.178785
C	 2.289897325	-0.2356085716	 1.1887770519	 0.066424
O	 2.7478879991	 0.7789407064	 0.6957268019	-0.292605
H	 0.9186472542	 1.6818465573	-0.0506952603	 0.296676
H	-0.8182090727	-0.153231575	-2.017094136	 0.121735
H	 0.1291654077	-1.6337982254	-1.4926574111	 0.105946
H	-2.2467513416	-0.2803472619	 0.0139344943	 0.103063
H	-1.7577653668	-1.8796656898	 1.8945720336	 0.126529
H	-1.267559603	-2.9187605243	 0.5674755431	 0.124501
H	 0.8520039101	-2.5106662846	 2.1157606673	 0.114861
H	 2.9014628895	-0.862410401	 1.8715670938	 0.086251
