19
gdb 79999	2.7361	1.7816	1.55366	1.5164	78.98	-0.2223	-0.0004	0.2219	956.0399	0.16018	-385.789333	-385.782234	-385.78129	-385.820225	29.981	
C	-0.0291341657	 1.6659369102	 0.0409467956	-0.441342
C	 0.0609376775	 0.1517695245	 0.0116320903	 0.009216
C	 1.1962695352	-0.6034714594	-0.7543515541	-0.150221
C	 2.433989008	-0.0434045555	 0.0207012085	-0.075735
C	 2.0969027251	-0.0898996364	 1.3210936697	-0.195142
C	 0.7067808457	-0.7029766481	 1.1963782529	 0.406193
O	-0.1945694205	-1.4405551074	 2.0174168387	-0.355956
C	-0.3804400128	-2.3671465018	 0.8812702758	-0.162933
C	 0.9216439891	-1.8315685587	 0.1957942836	-0.056192
H	 0.9236092104	 2.1316456372	 0.3038708966	 0.118098
H	-0.3355773789	 2.0517288544	-0.9382004816	 0.112488
H	-0.7815079537	 1.9897831839	 0.7683392252	 0.119875
H	-0.9199505561	-0.2575669074	-0.2446905732	 0.073622
H	 1.2616059029	-0.6430067979	-1.8422845699	 0.061637
H	 3.3318563961	 0.3492445967	-0.4347454284	 0.103593
H	 2.6371457532	 0.2287261182	 2.1996946357	 0.115015
H	-0.3077246824	-3.4034151651	 1.2204271151	 0.115642
H	-1.3431288652	-2.2068781755	 0.3881846251	 0.116619
H	 1.7682757122	-2.4979944517	 0.3580562343	 0.085523
