16
gdb 22183	1.68797	1.36649	0.86435	0.2283	79.37	-0.2563	-0.0044	0.2519	1338.773	0.119897	-400.636367	-400.626407	-400.625463	-400.672515	35.805	
O	-0.7603305136	 1.6214709382	-1.2278893529	-0.392695
N	-0.7109792832	 0.2279433763	-1.344140024	-0.167573
C	-0.8703385151	-0.3761682139	-0.2329755871	 0.371977
C	-0.8436679942	-1.8908285475	-0.2954228757	-0.408068
C	 0.2387674033	-2.4643847096	 0.5009404765	 0.309036
C	 1.132247912	-2.9173725211	 1.1647184812	-0.4674
C	-1.0745401352	 0.2903860035	 1.1156957966	-0.432816
C	-2.3507394159	-0.0769559009	 1.7219043689	 0.307263
C	-3.4046951429	-0.3925910116	 2.20525736	-0.463992
H	-0.6191938548	 1.9051000246	-2.1372962806	 0.311369
H	-1.8049838142	-2.2756172336	 0.0699434567	 0.154773
H	-0.7466322725	-2.1865906999	-1.3442576923	 0.151083
H	 1.9203284755	-3.3301109536	 1.7444886934	 0.201336
H	-0.2553862579	-0.0235782917	 1.7759154527	 0.157943
H	-1.0063820697	 1.3731479905	 0.9960375677	 0.166856
H	-4.3343575519	-0.6595355897	 2.6433456189	 0.200909
