17
gdb 38823	3.15266	1.82115	1.28978	1.119	72.32	-0.2174	0.017	0.2344	955.8173	0.138873	-417.959501	-417.95268	-417.951736	-417.990804	27.313	
C	 0.0165658795	 1.4581432845	 0.0723615046	-0.340321
C	 1.3333866352	 0.7207648298	-0.0256661989	-0.096505
N	 1.6581591311	 0.1839426903	 1.3185983962	-0.338993
C	 0.459750333	-0.7295283693	 1.2346288195	-0.074042
C	 0.7695087983	-2.1986426056	 0.9008881527	-0.177218
N	-0.1056822335	-2.7940617936	-0.106351898	-0.266425
C	-0.7188320805	-2.0492296411	-0.9200054487	 0.113795
O	-0.7326911004	-0.6883841622	-1.0130049331	-0.251817
C	 0.0093155591	-0.0270544888	-0.0383968843	 0.415934
H	-0.2619294667	 1.9607145742	 0.995533549	 0.118979
H	-0.2791758701	 1.9592395734	-0.8447868703	 0.124678
H	 2.083365653	 0.9292596035	-0.7783533361	 0.106351
H	 2.5110711962	-0.3687789967	 1.2918104903	 0.2206
H	-0.2036353797	-0.6514602057	 2.10240446	 0.087952
H	 1.8017278344	-2.2846132086	 0.5329095638	 0.11008
H	 0.7136133719	-2.8172773905	 1.8021575519	 0.119778
H	-1.3608421409	-2.4695746338	-1.6906414587	 0.127174
