20
gdb 6403	3.13137	1.26187	1.05471	1.9133	72.18	-0.2418	-0.0069	0.2349	1219.6651	0.172936	-386.159167	-386.148868	-386.147924	-386.195643	35.313	
C	 0.1933080251	 1.2937391407	 0.052872519	-0.238737
O	 0.0789117503	-0.1107507008	 0.0722872131	-0.255777
C	-1.2638248327	-0.5894491672	 0.0721747483	 0.157081
C	-1.8015308481	-0.7242752409	-1.3534788651	-0.405131
C	-1.227782576	-1.9196405164	 0.817540223	-0.319549
C	-0.9596077779	-1.7471148864	 2.3124273862	 0.402832
C	-0.345397577	-2.9379433713	 3.0222805921	-0.477801
O	-1.2389326092	-0.7259633196	 2.8969036284	-0.303076
H	 1.2607183202	 1.5298074416	 0.0599302272	 0.122868
H	-0.2529106556	 1.7413281018	-0.8481718616	 0.100101
H	-0.2773871521	 1.7465767312	 0.9376538905	 0.12037
H	-1.8939470105	 0.1025668457	 0.6477552827	 0.088265
H	-1.7726904292	 0.2371990247	-1.8747090155	 0.118774
H	-1.2006280297	-1.4384738147	-1.9256489863	 0.120029
H	-2.8409491504	-1.0688388747	-1.3486178911	 0.112103
H	-2.1897723152	-2.4419229371	 0.7188298557	 0.12103
H	-0.471925694	-2.5761626213	 0.3715340751	 0.116133
H	 0.6872390872	-3.0699559971	 2.6775706156	 0.14766
H	-0.3491817455	-2.7777476014	 4.1011107733	 0.140342
H	-0.8818289197	-3.8606737468	 2.7746171893	 0.132483
