20
gdb 59807	3.94515	0.89627	0.87214	2.8114	88.45	-0.2321	-0.0256	0.2065	1457.116	0.170427	-403.177779	-403.168584	-403.16764	-403.213506	33.769	
C	-0.0433454426	 1.52714502	-0.0037502038	-0.367824
C	 0.0009654288	-0.0063050672	 0.0019019329	 0.047296
C	 0.7258419344	-0.5366077925	 1.2456008319	-0.367824
N	-1.3709307776	-0.5096004217	 0.0151698123	-0.343088
C	-1.7957670934	-1.2370276678	-0.9252880529	 0.434734
O	-1.0667342943	-1.6351721346	-2.0322924746	-0.259585
C	-1.8828639803	-2.4490053657	-2.8745938136	-0.131392
C	-3.2099781953	-2.5206829985	-2.1756180549	-0.100405
C	-3.1405741542	-1.8129574583	-1.0487599241	-0.163346
H	 0.969477218	 1.9428476331	 0.0213558094	 0.104296
H	-0.5448454862	 1.8997038612	-0.901956601	 0.110398
H	-0.5933816973	 1.895005877	 0.8683009392	 0.118583
H	 0.5459478723	-0.3430700465	-0.8899280129	 0.082174
H	 0.1980699966	-0.2284393355	 2.1537987733	 0.118582
H	 0.7706071691	-1.6297475943	 1.2347128767	 0.110397
H	 1.7500670027	-0.1514961063	 1.289205185	 0.104293
H	-1.9488624117	-1.9879418952	-3.8699277519	 0.126937
H	-1.4100445529	-3.4336525362	-2.9951601741	 0.126937
H	-4.056040272	-3.0711553832	-2.5642172125	 0.121626
H	-3.9049659139	-1.6475060778	-0.3045107141	 0.127211
