21
gdb 63752	3.69418	1.05207	0.95951	2.2759	78.18	-0.2425	0.0592	0.3017	1292.1903	0.180877	-424.195052	-424.185869	-424.184924	-424.229208	35.019	
C	-0.3032415716	 1.5385271398	-0.0472224925	-0.452409
C	-0.0681004044	 0.0321024978	-0.0058201522	 0.428923
O	-1.2884797032	-0.6773949644	-0.1068414418	-0.477636
C	 1.0946340719	-0.4505611528	-0.9314041911	-0.362056
C	 2.0171636542	-0.5203451343	 0.3091384274	 0.319047
C	 3.1240626979	-1.5737212342	 0.4815013388	-0.138904
O	 4.1406455698	-0.5605910352	 0.6263221523	-0.27595
C	 3.1693189609	 0.4935245331	 0.4847311988	-0.128976
C	 0.7618189306	-0.4486253016	 1.2106967637	-0.340341
H	 0.6292241647	 2.0978219666	 0.0802632635	 0.123087
H	-0.7333253314	 1.8372950742	-1.0117918101	 0.107192
H	-0.9956292813	 1.8360899092	 0.7463831625	 0.126341
H	-1.7766252629	-0.33225765	-0.8625211329	 0.27324
H	 0.8728429104	-1.4468535578	-1.3249087472	 0.104721
H	 1.4040007344	 0.2035927592	-1.7525946942	 0.093075
H	 3.0393139755	-2.2034973491	 1.3776222984	 0.098676
H	 3.3044785897	-2.2170323545	-0.3903658153	 0.097984
H	 3.3798010475	 1.1309443099	-0.3850646052	 0.095667
H	 3.1140329004	 1.1233475644	 1.3833165611	 0.09651
H	 0.8017216791	 0.2049590796	 2.0868518848	 0.098729
H	 0.4280502978	-1.4432049597	 1.5194066813	 0.113079
