18
gdb 69406	3.11589	1.24678	1.19355	1.6939	83.43	-0.2278	0.0036	0.2314	1138.3205	0.14651	-364.75746	-364.749131	-364.748187	-364.790068	32.633	
C	 0.0829049395	 1.5202441095	 0.0527539134	-0.47945
C	-0.0203481475	 0.0163252683	-0.008527849	 0.306271
C	-0.8742329939	-0.7687842525	 0.9339799826	-0.276092
N	 0.5868572922	-0.7943523628	 1.0794795982	-0.133812
C	 1.2397891074	-1.9701181592	 0.4390355394	-0.213867
C	 0.953007295	-1.8251575019	-1.0519011138	-0.097671
C	 0.2738081753	-0.704963147	-1.2843289156	-0.133536
C	 2.6751945734	-2.0040764234	 0.7256439754	 0.339225
C	 3.8583175751	-2.0500080696	 0.9300815135	-0.439146
H	 1.0678693081	 1.8586477297	-0.2849341917	 0.128396
H	-0.6752741589	 1.9871400418	-0.5859907826	 0.116989
H	-0.0662422959	 1.8736981714	 1.0758519301	 0.130696
H	-1.3909046503	-0.2689859224	 1.7502049988	 0.112759
H	-1.3777214531	-1.6499531198	 0.5415248816	 0.110622
H	 0.7877600347	-2.887478445	 0.8422608143	 0.114927
H	 1.2704694258	-2.5614954187	-1.779348019	 0.113334
H	-0.0461152771	-0.3408914869	-2.253400257	 0.105566
H	 4.9020941203	-2.0831468814	 1.1225412414	 0.194789
