18
gdb 87574	2.60981	1.44208	1.24609	0.5396	71.64	-0.24	0.0728	0.3128	1083.8324	0.146686	-439.011769	-439.003386	-439.002442	-439.044706	31.994	
C	-0.0640835144	 1.5387878134	-0.0059832568	-0.393487
C	-0.0283722013	 0.0341029802	 0.0939210279	-0.069304
N	 1.2802266557	-0.6218903346	-0.1455229434	-0.406036
C	 0.6700349009	-0.686380737	 1.1760606278	 0.306854
C	 1.3156637568	-0.1829077592	 2.4523182207	-0.066481
O	 0.2472702811	-0.1324568191	 3.4222220526	-0.259759
C	 0.8972309918	-1.3904585784	 3.1860627822	-0.017893
C	 0.2231442331	-1.9785366141	 1.9277145076	 0.023451
O	-1.1406690714	-2.2816054894	 2.0019946879	-0.430472
H	 0.8549028837	 1.973696758	 0.3955205845	 0.12405
H	-0.1596897682	 1.8578809604	-1.0491484235	 0.122166
H	-0.9134129399	 1.9447895452	 0.5535108595	 0.122301
H	-0.905748189	-0.4813133161	-0.2958463751	 0.095788
H	 1.1558750782	-1.5057726979	-0.6349882666	 0.233015
H	 2.1673942836	 0.4682898645	 2.6006863139	 0.117695
H	 1.3366491203	-1.8948520039	 4.0385656797	 0.109772
H	 0.7379197109	-2.8673458826	 1.5482168319	 0.09799
H	-1.5567867521	-1.5252912792	 2.4356706894	 0.290347
