23
gdb 78231	1.8579	1.65603	0.99252	0.2821	92.57	-0.2138	0.0297	0.2435	1315.2543	0.20554	-351.171429	-351.161996	-351.161051	-351.204994	36.593	
C	-0.0562668783	 1.4683490268	 0.0811051218	-0.419707
C	 0.059366343	-0.0396654452	 0.0675253075	-0.000803
C	 0.6729415092	-0.7165057076	-1.1336193251	-0.063015
C	 1.4249971126	-0.6952262566	 0.1866951693	-0.153972
C	 1.4120630791	-2.1106375574	 0.6759072095	 0.322143
C	 2.0206457665	-2.4988666153	 1.9870279872	-0.495526
C	 0.7716013581	-2.9020444017	-0.1921978716	-0.192821
C	 0.3123140261	-2.1751280648	-1.443029412	-0.034886
C	-1.1603709233	-2.4113579143	-1.812584182	-0.389661
H	 0.7976701414	 1.9343315008	-0.4223716178	 0.112618
H	-0.9645511871	 1.8023161033	-0.4335276962	 0.116122
H	-0.0902119323	 1.858058147	 1.1047254421	 0.114447
H	-0.7496315933	-0.5653269678	 0.5693616082	 0.080214
H	 0.9795532287	-0.0756475421	-1.9536258597	 0.074958
H	 2.2926836565	-0.0648015849	 0.3590482259	 0.074094
H	 1.5628666191	-1.9458766574	 2.8170948418	 0.124979
H	 1.9077931577	-3.5684478096	 2.1838894694	 0.120714
H	 3.0921006393	-2.2616115006	 2.010401429	 0.12309
H	 0.57427841	-3.9582781759	-0.0358806343	 0.078788
H	 0.919072028	-2.5127633235	-2.2978753613	 0.074209
H	-1.8286223195	-2.0809612541	-1.0112725012	 0.11459
H	-1.4278923136	-1.8649744285	-2.7230556355	 0.110488
H	-1.3540402979	-3.4742629506	-1.992929275	 0.108937
