13
gdb 133335	2.37374	1.8842	1.05152	1.389	68.58	-0.2112	-0.059	0.1523	1018.9743	0.08929	-493.99878	-493.991352	-493.990408	-494.030595	28.285	
N	 0.06425485	 1.3976418071	 0.0471628588	-0.599495
C	 0.0184289628	 0.0179445724	 0.0416100716	 0.048163
C	-1.1094342773	-0.7212830466	 0.0803227216	 0.351903
F	-2.3173660326	-0.1884604293	 0.0647436983	-0.046756
O	-1.1937538158	-2.060588567	 0.1355615368	-0.244561
N	-0.034238061	-2.8170612219	 0.1560689008	-0.068027
C	 1.0775284211	-2.1650141338	 0.1087910396	-0.024385
C	 1.2686685096	-0.7200300831	 0.0339712956	 0.253424
N	 2.3866290539	-0.0843358595	-0.0438326503	-0.560479
H	 0.9676345926	 1.7390879072	-0.2568855566	 0.274568
H	-0.7256731	 1.8745062287	-0.3594393361	 0.256441
H	 1.9515974703	-2.8121598384	 0.1217649529	 0.140827
H	 3.1808539865	-0.7246213057	-0.0492341529	 0.218376
