17
gdb 67135	2.11066	1.84294	1.49723	3.7293	73.11	-0.2283	0.008	0.2363	982.4657	0.134885	-421.79502	-421.786839	-421.785895	-421.827432	31.265	
C	-0.1353716851	 1.5042879046	-0.1157026895	-0.526203
C	 0.0271398017	 0.0273125752	 0.0115384072	 0.297664
C	 0.5623514172	-1.0716833627	-0.8603159609	-0.187317
C	 1.3358758868	-1.7150125426	 0.2913827329	-0.246192
C	 0.3623431406	-0.9384807037	 1.2222786046	-0.234479
C	-1.0220056125	-1.5723005824	 0.9294405264	 0.366326
O	-1.8936437992	-2.0196472655	 1.6204657461	-0.346121
C	-0.9381597497	-1.0831721781	-0.4843448313	 0.22642
O	-1.9286499123	-0.9023477301	-1.4137403701	-0.456132
H	 0.8180817478	 2.0279233531	 0.0121910793	 0.12803
H	-0.5333523977	 1.7560687709	-1.1037764228	 0.140117
H	-0.835088728	 1.8894927939	 0.633710461	 0.137597
H	 0.8177367897	-1.0141339502	-1.9127065058	 0.096521
H	 1.3395476976	-2.8077565003	 0.3755002922	 0.102322
H	 2.3593882557	-1.3347548475	 0.3525054771	 0.109698
H	 0.6212809182	-0.6421032422	 2.234932369	 0.094205
H	-1.9514199307	-1.6646748826	-2.0026936953	 0.297544
