16
gdb 43043	2.62096	2.30247	1.69436	1.9699	71.6	-0.2111	-0.028	0.1831	831.7667	0.127462	-400.723326	-400.717337	-400.716392	-400.75341	25.327	
O	-0.0043432585	 0.0565184857	 0.1055889795	-0.335833
C	-0.0471844075	 1.2516051853	 0.0272459618	 0.445273
C	-1.2324993102	 2.2123209758	-0.0005437416	-0.178403
C	-0.7792968738	 3.0586278595	 1.2179475116	-0.192155
N	 0.354250545	 3.5473419391	 0.3379821665	-0.122896
C	-0.6071919046	 3.410311041	-0.8349005005	-0.033664
C	 0.2754673336	 3.0685643305	-2.0049353299	-0.090556
C	 1.3484723769	 2.4471663574	-1.5091700763	-0.075007
C	 1.1164175097	 2.2938995102	-0.0188453466	-0.161934
H	-2.2247796808	 1.7929792311	-0.1496942818	 0.089016
H	-1.4445016724	 3.8927139589	 1.450916178	 0.119289
H	-0.4813922099	 2.5471756674	 2.1371599201	 0.119282
H	-1.2759787832	 4.2670567308	-0.9336804975	 0.088437
H	 0.0537374424	 3.2939425158	-3.0389832848	 0.114276
H	 2.1849833126	 2.0188643286	-2.0435886721	 0.121826
H	 1.9747603206	 2.0845264629	 0.6172059136	 0.093049
