16
gdb 34126	3.59383	1.47547	1.39859	4.7442	72.57	-0.268	-0.0021	0.2659	954.1784	0.126516	-400.717164	-400.710699	-400.709755	-400.747928	26.441	
N	-0.0290014257	-1.1070005839	 0.1050808828	-0.335655
C	-0.0195796785	 0.04810403	 0.0736871182	 0.1755
C	 0.0188020272	 1.4906527914	-0.0055520543	 0.323864
C	-0.859576221	 2.2424855949	-1.0348367095	-0.247212
C	-0.1180760184	 3.5767698465	-0.8212451948	-0.099026
C	 1.3020369316	 3.231421776	-1.3450269879	-0.255855
C	 1.373714054	 2.3232574831	-0.1099164787	-0.111259
C	 0.4275562952	 3.2672404598	 0.6583967497	 0.10844
O	-0.3319254549	 2.1908207038	 1.2253779605	-0.314779
H	-0.7800912418	 1.8673231412	-2.0574013667	 0.118663
H	-1.9003519872	 2.2322877407	-0.7085556685	 0.12653
H	-0.6279974504	 4.5010646486	-1.0822414736	 0.083457
H	 1.3862986866	 2.7957172496	-2.3438861582	 0.110361
H	 2.0059576598	 4.0621788076	-1.2438947341	 0.114187
H	 2.2710290044	 1.873223763	 0.3080431963	 0.101094
H	 0.700179729	 4.0660001077	 1.3434986887	 0.101691
