21
gdb 108333	2.5562	1.60743	1.2799	1.9629	80.72	-0.243	0.0676	0.3106	1090.7871	0.182975	-387.03194	-387.023796	-387.022852	-387.064414	32.441	
C	 0.0674489162	 1.5290221873	 0.2120271672	-0.382815
C	-0.1193739291	 0.037580494	-0.0933651585	-0.294159
C	 0.670592291	-0.4732052718	-1.2841809625	 0.319173
C	 0.9269361095	-1.9938759818	-1.4033537423	-0.158255
O	 2.348624507	-1.7798395162	-1.6042986484	-0.301313
C	 2.2041371619	-0.3491729346	-1.4225305018	 0.064632
C	 2.051063895	 0.4993609926	-2.7030163357	-0.057934
C	 1.3109430767	-0.2732776853	-3.7531949133	-0.306468
C	 0.5251891034	 0.3169298276	-2.6156055618	-0.113222
H	 1.1177903912	 1.7637070883	 0.4146374988	 0.118671
H	-0.2581670143	 2.1607509847	-0.6195186615	 0.121155
H	-0.5123360668	 1.816603	 1.0941023477	 0.115105
H	 0.1649989623	-0.5471951519	 0.790670477	 0.099611
H	-1.1859133611	-0.168264402	-0.2636773121	 0.09967
H	 0.7401293159	-2.5517874665	-0.4764034907	 0.095326
H	 0.461144865	-2.5237867399	-2.2423719704	 0.099242
H	 2.8604797421	 0.0477937585	-0.643581204	 0.072844
H	 2.6297659345	 1.3862761908	-2.9321563808	 0.083307
H	 1.1886877951	 0.2460206196	-4.6984687675	 0.110188
H	 1.472690882	-1.3410660159	-3.8495459902	 0.130596
H	-0.2544360674	 1.0475901425	-2.7972758292	 0.084646
