16
gdb 111187	2.91929	1.22155	0.97497	2.0132	70.23	-0.2626	0.0082	0.2708	1201.4205	0.122957	-437.804914	-437.796712	-437.795768	-437.838302	29.748	
C	 0.1207624807	 1.3308050848	-0.1881391432	-0.249514
O	-0.0048260843	 0.0373092056	 0.3736242187	-0.242371
C	-1.2607467424	-0.510500973	 0.2198151057	 0.164359
C	-1.5772241718	-1.3608897414	-1.059853108	-0.007677
O	-0.613882108	-2.3722787495	-0.591125171	-0.298595
C	-1.3782537201	-1.9988589166	 0.6135852866	-0.002043
C	-2.6769213876	-2.1180628831	-0.2494432214	-0.150396
C	-3.9143840641	-1.4674314581	 0.1432654266	 0.267478
N	-4.9014138343	-0.950326679	 0.4523394274	-0.332886
H	 1.1249621827	 1.6852551684	 0.0508160603	 0.139848
H	-0.0007628418	 1.3138754155	-1.2804125966	 0.115104
H	-0.6172306911	 2.0277403943	 0.2357972017	 0.117081
H	-2.0593937864	 0.1620243949	 0.5616125906	 0.100189
H	-1.58170601	-1.1064964151	-2.1187268681	 0.116421
H	-1.1404903267	-2.4986274478	 1.5512810248	 0.119568
H	-2.8379930949	-3.1315210398	-0.6151444741	 0.143435
