15
gdb 130703	5.67136	0.98301	0.89031	2.0921	68.2	-0.2226	0.0046	0.2272	1249.7706	0.115471	-450.141211	-450.133554	-450.132609	-450.174021	28.192	
O	-0.6791975321	 0.3312258584	-0.9964331314	-0.416933
C	-0.2409587202	 1.2749751923	-0.3787073824	 0.459928
N	-0.6595017678	 1.8372450855	 0.8084026282	-0.293273
N	 0.10539436	 2.9035193817	 1.2287957745	-0.294081
C	 0.9991993841	 3.0464917681	 0.2959158847	 0.431194
N	 0.8486507381	 2.1043358823	-0.6923009528	-0.418229
C	 2.0358153987	 4.09513225	 0.2945474376	-0.12585
C	 1.6174568129	 5.5252539651	 0.427307622	-0.222524
N	 2.2817392917	 4.8376884382	 1.5346710794	-0.30283
H	-1.4032015438	 1.4886559089	 1.3866161188	 0.283282
H	 1.4027183473	 1.9903388416	-1.5233597944	 0.279411
H	 2.9265913067	 3.8558246447	-0.2816573255	 0.103519
H	 2.204995832	 6.3005682905	-0.0565542893	 0.127419
H	 0.5503572625	 5.7159853488	 0.4944739389	 0.131979
H	 1.5911658502	 4.5441039941	 2.2240465119	 0.256989
