23
gdb 89376	2.51621	1.3477	1.07382	1.2654	85.54	-0.2495	0.0784	0.3279	1243.7568	0.205456	-388.302703	-388.293234	-388.29229	-388.336045	37.4	
C	-0.0609264686	 1.5136340828	-0.0280467234	-0.479094
C	-0.0126171409	 0.0046251046	 0.0159817149	 0.315471
C	 1.2966029176	-0.7165394602	-0.2384199272	-0.38274
C	 0.6514441253	-0.7973589044	 1.1309537708	 0.308885
C	 1.3390804029	-0.1779284678	 2.3245468321	-0.479602
C	-0.2055297158	-2.030763248	 1.3844476216	-0.268967
C	-1.1048569678	-2.1854653333	 0.1463790078	 0.110021
O	-2.3232419529	-2.8062662	 0.5315526204	-0.438998
C	-1.2710951589	-0.7473568727	-0.3981275587	-0.304069
H	 0.8637597087	 1.9634766972	 0.3453542201	 0.113348
H	-0.2044301283	 1.87061884	-1.055081298	 0.114897
H	-0.8906190451	 1.9036534692	 0.5737779578	 0.113092
H	 1.3246065229	-1.5907552652	-0.8822341947	 0.102256
H	 2.1824624942	-0.093155873	-0.3191560416	 0.100471
H	 1.8817458352	 0.7335111298	 2.0570628939	 0.112355
H	 0.6187266456	 0.0784560927	 3.1106357327	 0.113612
H	 2.0662865947	-0.8734042277	 2.7605666506	 0.116309
H	 0.3803798345	-2.9342039159	 1.5864860766	 0.094742
H	-0.8531900157	-1.860552573	 2.2538507227	 0.106631
H	-0.5976268046	-2.8088008151	-0.6043087916	 0.067108
H	-2.8434669879	-2.9586483709	-0.2634283672	 0.279585
H	-2.1456948849	-0.2982203822	 0.0902735333	 0.100443
H	-1.4504524005	-0.7254595667	-1.4805904128	 0.084245
