21
gdb 107242	2.82255	1.4057	1.09177	2.0191	81.75	-0.2201	0.0721	0.2923	1191.2719	0.180755	-387.025628	-387.016668	-387.015723	-387.058935	34.906	
C	 0.185002196	-2.9320557184	 0.9644981096	-0.388924
C	 1.0033640018	-1.6756612481	 0.6493181249	-0.285862
C	 1.2668677657	-1.436056475	-0.8159310941	 0.282241
C	 0.3725266561	-1.8280091246	-1.9623552392	-0.34097
C	 1.7751763206	-2.3846364754	-1.8978429124	-0.147876
C	 2.8236055264	-1.3133813115	-2.3169430031	-0.056997
O	 2.1429410476	-0.1041631478	-2.6959422105	-0.285864
C	 2.3469287746	-0.3822991731	-1.2987172677	 0.360814
C	 3.0096795361	 0.6614520068	-0.4612576302	-0.509399
H	-0.8293637365	-2.8649917935	 0.5599998257	 0.123197
H	 0.6554789022	-3.8288189238	 0.5474010018	 0.118549
H	 0.100707706	-3.0730876349	 2.0461031665	 0.114062
H	 0.491228072	-0.7988143242	 1.070469863	 0.101529
H	 1.9652884577	-1.7403343175	 1.1765788021	 0.096699
H	-0.4035386501	-2.545543852	-1.7171658359	 0.107996
H	 0.1101330831	-1.1099185958	-2.7287612331	 0.131348
H	 1.9902792462	-3.4428295533	-1.8240586102	 0.088072
H	 3.807750225	-1.4837626759	-2.7385832158	 0.10071
H	 2.3119263568	 1.4721144884	-0.22111694	 0.130519
H	 3.3714156464	 0.2402673243	 0.4818153548	 0.126288
H	 3.8580271964	 1.0914156354	-1.0003489361	 0.133869
