19
gdb 39350	2.87026	1.7672	1.28911	2.3666	73.72	-0.2448	0.0715	0.3164	1007.4158	0.16161	-423.024632	-423.017402	-423.016458	-423.056382	28.779	
C	-0.079876311	 1.5171881134	 0.2827248609	-0.212244
C	 1.3616829128	 2.0605291079	 0.1219952023	-0.245266
C	 2.2310961852	 0.8407260898	 0.4740407324	 0.06301
O	 3.5537347288	 0.799080178	-0.0465416901	-0.283483
C	 3.6088583513	-0.0190723882	-1.2179851914	-0.106263
C	 2.3093457134	-0.7892594255	-1.26612418	-0.081528
O	 2.0332453525	-1.5710722383	-0.088834789	-0.322032
C	 1.4526542031	-0.2766500822	-0.1957616112	 0.465844
C	-0.0315523789	 0.0289765077	-0.1848411047	-0.339024
H	-0.3729010299	 1.5612996657	 1.3368567466	 0.110484
H	-0.8120323792	 2.1068010273	-0.2735690969	 0.105505
H	 1.5537676357	 2.3462926122	-0.9189604796	 0.102535
H	 1.5625508495	 2.9332722743	 0.7474592074	 0.104621
H	 2.3058677951	 0.7163765728	 1.561862291	 0.089523
H	 3.70219225	 0.5946106489	-2.1275884366	 0.097046
H	 4.4940056654	-0.6612731214	-1.144567452	 0.117647
H	 1.9301221179	-1.1896597983	-2.2025903355	 0.102118
H	-0.5606807283	-0.6338777311	 0.5055647307	 0.120466
H	-0.4815837434	-0.109084653	-1.1719489243	 0.111041
