18
gdb 15683	3.46761	1.63705	1.18424	1.7409	67.64	-0.2403	-0.0253	0.215	1025.2688	0.153602	-384.965778	-384.957713	-384.956769	-384.998547	29.444	
C	 0.1344835733	 1.6222581096	 0.1277809341	-0.390117
C	 0.0204508124	 0.096566257	 0.0480042177	-0.191076
C	 0.5896023794	-0.4962926461	-1.2465048101	-0.100454
C	 0.7291744611	-2.0246111387	-1.2844335926	-0.112674
O	 0.7277969279	-2.3824586694	-2.6670407327	-0.248076
C	-0.1998964371	-1.541425914	-3.3215848679	-0.176606
C	-0.2624174376	-0.2514454515	-2.4974789362	 0.360718
O	-0.8928513736	 0.7342391156	-2.7805095994	-0.304249
H	 1.1827523104	 1.9392146266	 0.0868200712	 0.110716
H	-0.3946013056	 2.0928719347	-0.703201106	 0.152374
H	-0.2887798419	 1.9943130645	 1.0656665695	 0.111492
H	 0.5465308169	-0.3582287868	 0.897139433	 0.099889
H	-1.030813176	-0.2028280026	 0.1438847568	 0.103986
H	 1.5751022863	-0.0538456721	-1.4554424469	 0.110825
H	 1.6591976519	-2.3955736579	-0.8487367794	 0.119213
H	-0.1154914562	-2.5001205496	-0.7575386694	 0.094922
H	 0.1283270972	-1.3547987044	-4.3484048318	 0.138983
H	-1.2102585886	-1.9833722148	-3.3598774799	 0.120134
