21
gdb 119592	4.31336	0.92753	0.84613	1.6686	83.91	-0.241	0.0064	0.2475	1457.2289	0.182175	-387.090147	-387.081277	-387.080333	-387.124119	33.743	
C	-0.2447704655	 1.5795742045	 0.1425932765	-0.38335
C	-0.1404276254	 0.0528061615	 0.1422122421	-0.161504
C	 0.9563706668	-0.4693771709	 1.0830374161	-0.295415
C	 1.0389823285	-1.972802951	 1.1113536324	 0.407512
O	-0.0547954303	-2.650175523	 1.7929205103	-0.306375
C	 1.2702458339	-2.8084760831	 2.3066961565	-0.036288
C	 1.959109986	-4.0978243678	 1.8767517014	-0.295823
C	 2.0390883796	-3.94944639	 0.3699617906	-0.074793
C	 1.5550202695	-2.7774525079	-0.0465160424	-0.131463
H	 0.6944420921	 2.0432732375	-0.1799645564	 0.111952
H	-1.0347428346	 1.9246721719	-0.531570086	 0.112723
H	-0.4728518596	 1.959923014	 1.1445757478	 0.115479
H	-1.0966717187	-0.3887636119	 0.4450953385	 0.117413
H	 0.0516410911	-0.3006097387	-0.8788801143	 0.096317
H	 1.9310950702	-0.0633657837	 0.7804820042	 0.09816
H	 0.7629214834	-0.1090384299	 2.1001281831	 0.102668
H	 1.4388884145	-2.3914561126	 3.2968169512	 0.089687
H	 2.9530023099	-4.1908783013	 2.3335388665	 0.110693
H	 1.3858688648	-4.9835146438	 2.1767191369	 0.125
H	 2.4185976844	-4.7368717737	-0.2716322194	 0.099603
H	 1.5076859794	-2.43905006	-1.0744053654	 0.097805
