22
gdb 54144	2.28682	1.34714	1.19144	3.176	82.75	-0.2377	0.0309	0.2686	1206.9717	0.191901	-404.38351	-404.372854	-404.37191	-404.418652	39.916	
C	-0.0644157137	 1.4361430714	-0.1701846746	-0.459315
C	 0.1135164884	-0.0594374037	 0.0215712873	 0.32931
C	-0.9695637306	-0.8716658845	-0.6701336245	-0.455061
C	 1.5120308552	-0.639507988	 0.0513928148	-0.400051
C	 0.6943709264	-0.5986903748	 1.3274027034	 0.192251
C	 1.1003840729	 0.3421532906	 2.4524504691	-0.454321
C	 0.0543336165	-1.8501458237	 1.8984843391	 0.325067
N	 0.6281551612	-3.0450322267	 1.5513373282	-0.516228
O	-0.9178053452	-1.7890484779	 2.627716169	-0.371681
H	 0.7577174402	 2.0200353934	 0.2484263894	 0.114275
H	-0.1202006568	 1.6713321784	-1.2394485839	 0.115539
H	-0.9952207124	 1.7840667651	 0.2921957728	 0.123887
H	-1.002233877	-0.6285458948	-1.7384599674	 0.107329
H	-0.8005455607	-1.9472133434	-0.5773631532	 0.12517
H	-1.9547158407	-0.6519523645	-0.2444507519	 0.129535
H	 1.6728541676	-1.5850517797	-0.4580429502	 0.100997
H	 2.354681503	 0.0423847209	-0.0160040493	 0.106702
H	 1.534536963	 1.2695079159	 2.0749150712	 0.112063
H	 0.2331946859	 0.5832625022	 3.072476391	 0.145021
H	 1.8500600522	-0.1319622191	 3.0965514085	 0.113846
H	 1.5539814994	-3.0741716168	 1.1610719933	 0.258446
H	 0.2923515953	-3.8647238603	 2.0327392879	 0.257218
