21
gdb 107618	2.45185	1.4784	1.11021	1.884	77.72	-0.2272	0.0685	0.2957	1163.1427	0.182543	-424.21064	-424.201602	-424.200658	-424.244126	34.582	
C	-0.0462565559	 1.5524468382	-0.0985227604	-0.40411
C	 0.0174036969	 0.0271112167	-0.0043266383	-0.056473
C	 0.8228972722	-0.6255722345	-1.1536844134	-0.107493
O	 1.3883135519	-1.8331081878	-0.6460934107	-0.260778
C	 1.5326022193	-1.6847415671	 0.7409842896	 0.053841
C	 2.2140012734	-0.4545886078	 1.2823039509	-0.371221
C	 0.6933887301	-0.5434633581	 1.2440240005	 0.337279
C	-0.0842554527	-0.6246377248	 2.5248494763	-0.187441
O	-0.2703103243	 0.6926825084	 3.0369819613	-0.416215
H	 0.958771698	 1.9876343151	-0.0743014984	 0.113842
H	-0.5271760299	 1.8700996449	-1.0304548532	 0.105846
H	-0.6076787696	 1.9646342858	 0.7423703407	 0.136799
H	-1.0062789861	-0.371548536	-0.0187256819	 0.071784
H	 0.2105355487	-0.8810117341	-2.0231342733	 0.108564
H	 1.6184506354	 0.0547278928	-1.4932125989	 0.093197
H	 1.6206080874	-2.6406777319	 1.2451592451	 0.098258
H	 2.682585765	-0.5339567923	 2.2577185494	 0.113263
H	 2.727607622	 0.2105671031	 0.596956039	 0.116492
H	-1.0562812143	-1.1090436414	 2.3344793183	 0.086389
H	 0.4593285008	-1.2523608325	 3.2493934195	 0.081762
H	-0.8358338585	 0.6342544931	 3.813096488	 0.286415
