21
gdb 106491	2.52535	1.53071	1.16838	2.2322	77.14	-0.2511	0.0836	0.3347	1131.3813	0.183365	-424.210702	-424.202237	-424.201293	-424.243399	33.541	
C	-0.0976085375	 1.5630681409	-0.1000411255	-0.422557
C	 0.06834334	 0.0506021817	 0.0370312632	-0.00833
C	 1.0315075395	-0.6265009917	-0.9991803323	-0.241828
C	 1.9646063425	-1.3235234582	 0.0115688515	 0.07587
C	 2.294417484	-0.2183667398	 1.0309047867	-0.273016
C	 0.7898713623	-0.451357	 1.31473553	 0.382345
C	 0.1616761027	-0.294606225	 2.6748573565	-0.169277
O	 0.8949473052	-0.9845903722	 3.6676917561	-0.419942
O	 1.0038797953	-1.872799679	 0.9722245814	-0.350021
H	 0.8631894602	 2.0859594997	-0.0482999973	 0.117434
H	-0.5567906112	 1.8157984998	-1.06122971	 0.120815
H	-0.741899342	 1.969284775	 0.6873183925	 0.118786
H	-0.9167911695	-0.4251066109	-0.0016308545	 0.080282
H	 0.5222148054	-1.3444738812	-1.6452785594	 0.107079
H	 1.5582093257	 0.0982513192	-1.6279137549	 0.097519
H	 2.6945311481	-2.0479298698	-0.3494168467	 0.078752
H	 2.9092304448	-0.5773213808	 1.8555353341	 0.116147
H	 2.6320375769	 0.7570903166	 0.6733071453	 0.093987
H	 0.1396971046	 0.7624073606	 2.9619883447	 0.113065
H	-0.8824781249	-0.6477529388	 2.6253068991	 0.092444
H	 1.086073808	-1.853121906	 3.2915234192	 0.290449
