21
gdb 94623	3.37822	0.9618	0.83198	2.3986	78.94	-0.2409	0.0621	0.3029	1442.784	0.181708	-424.185569	-424.176117	-424.175173	-424.221181	34.443	
O	 0.1802705202	 1.2584180176	-0.359299709	-0.421265
C	 0.0457299905	-0.0652073106	 0.1020057951	 0.036549
C	-0.2435382305	-0.27014553	 1.6058912476	-0.096525
O	-1.5282995356	-0.8558620514	 1.3225994892	-0.287798
C	-1.3753651271	-0.6433590492	-0.1062790539	 0.131173
C	-2.4324490693	 0.2802942981	-0.6946721195	-0.216347
C	-3.8109239735	-0.34662804	-0.7021759693	 0.024789
C	-4.6537574618	-0.3470197223	 0.547687628	-0.238469
C	-5.0449270319	 0.5176987087	-0.624822202	-0.284346
H	 1.0841024591	 1.5468566559	-0.2007665326	 0.289201
H	 0.8447261329	-0.7062328102	-0.2906217782	 0.075506
H	 0.4162918018	-0.9621124969	 2.1443297462	 0.095493
H	-0.3254815867	 0.6701295289	 2.1667631998	 0.099071
H	-1.3837132834	-1.6080638634	-0.6326890378	 0.071383
H	-2.4431818864	 1.2158257913	-0.1258202294	 0.104249
H	-2.1274366595	 0.5420730061	-1.7163943843	 0.102956
H	-3.8939616535	-1.2322559709	-1.3286227331	 0.075763
H	-5.254480122	-1.2232331764	 0.7649942331	 0.105628
H	-4.2378864195	 0.1336393764	 1.4253148455	 0.119667
H	-4.9065347031	 1.590651531	-0.5362035906	 0.107381
H	-5.9115809208	 0.2321429274	-1.2111573048	 0.105942
