18
gdb 72624	2.47638	1.4545	1.20669	3.4533	77.69	-0.2493	0.0234	0.2728	1101.613	0.145998	-401.934339	-401.925351	-401.924407	-401.96767	33.3	
C	 0.0083677838	 1.6108307592	-0.001398074	-0.499188
C	 0.0733479612	 0.1140566374	 0.0495657244	 0.182682
C	 0.6360144755	-0.8063854969	-1.0289986395	-0.137721
O	 1.1139851508	-1.7459567765	-0.0255696081	-0.320752
C	 0.674905614	-0.8754414807	 1.0151630219	 0.433736
C	 1.4793810966	-0.8052269256	 2.2689392497	-0.498402
C	-0.8514808748	-0.7665973855	 0.9155634033	-0.304936
C	-1.5503588174	-0.1208511144	 1.9860473074	 0.285669
N	-2.0983311349	 0.4066352748	 2.859501357	-0.350264
H	 0.9766393573	 2.0327766501	-0.2900726124	 0.127586
H	-0.7370217252	 1.9458885999	-0.7316772101	 0.134174
H	-0.2714505073	 2.0290894849	 0.9689412227	 0.152288
H	-0.0640173919	-1.2660174372	-1.7356242637	 0.113952
H	 1.4791164836	-0.3644615089	-1.5718932085	 0.119163
H	 2.5013918156	-0.4799136935	 2.0539745954	 0.134741
H	 1.0258322617	-0.1112473233	 2.9806026993	 0.152604
H	 1.5263624727	-1.793424925	 2.7389996195	 0.144821
H	-1.3832280512	-1.5940666387	 0.4525986756	 0.129846
