18
gdb 69587	3.55248	1.31676	1.1909	1.419	78.02	-0.2268	0.0093	0.2361	1082.6642	0.14823	-401.907949	-401.900221	-401.899277	-401.939721	31.289	
O	-0.0572427183	 1.4193723565	 0.062989254	-0.467759
C	-0.0028302442	 0.0260183657	 0.0593185182	 0.36489
C	-0.4039012223	-0.7508326199	-1.1756125564	-0.351256
C	-1.273797929	-0.7908945865	 0.0740818675	-0.207111
C	-1.0514965737	-1.9198214808	 1.0508200528	 0.340395
C	-2.1492184252	-2.450884704	 1.9056384099	-0.2943
N	-1.5871506786	-3.2828635976	 0.8311070545	-0.363057
C	 0.3619083722	-1.7761976237	 1.5125572281	-0.123708
C	 0.9320647009	-0.6869726647	 0.992607658	-0.178342
H	 0.6233661438	 1.7459202674	-0.5350889668	 0.284232
H	-0.8072472233	-0.1687914441	-1.9984708474	 0.111561
H	 0.1689535877	-1.6278438619	-1.4581144272	 0.119542
H	-2.2359010169	-0.2943442135	 0.0323182629	 0.098086
H	-1.935696581	-2.7969246722	 2.9135150062	 0.117964
H	-3.1385308151	-2.0175284966	 1.7762323423	 0.112157
H	-2.2054655487	-3.2701642698	 0.0229396817	 0.233003
H	 0.8318750323	-2.5113020635	 2.1543529842	 0.107084
H	 1.9461448094	-0.3466085906	 1.1689924177	 0.096618
