13
gdb 24503	4.14751	1.75194	1.23167	5.5774	71.44	-0.2493	-0.0494	0.1999	906.1928	0.094975	-411.87038	-411.864655	-411.863711	-411.900382	22.734	
N	-0.030701997	 1.3702783092	 0.0100590829	-0.394561
C	 1.2895649157	 1.7477230947	-0.0006781986	 0.028906
N	 2.133491721	 0.749046633	-0.0142839484	-0.312591
C	 1.3314213753	-0.3762732928	-0.0126678649	 0.35365
C	-0.0353494637	-0.0084470432	 0.0025787048	 0.268046
C	-0.9916516417	-1.0115401617	 0.0063632411	-0.076991
N	-0.5952320114	-2.2830253605	-0.0044144238	-0.257631
C	 0.7288503145	-2.5264584465	-0.0185672752	 0.049713
N	 1.7289786808	-1.6487853657	-0.0234624731	-0.319658
H	-0.8269966366	 1.9853381383	 0.0211547334	 0.276738
H	 1.5675205855	 2.7928131879	 0.0023328313	 0.149545
H	-2.0619333821	-0.8161822331	 0.0177968707	 0.115116
H	 1.0104108897	-3.5760422795	-0.0270186002	 0.119717
