18
gdb 91592	3.07674	1.12576	0.96754	3.2002	72.4	-0.2394	-0.0264	0.213	1239.4135	0.146605	-439.045635	-439.036942	-439.035998	-439.080021	32.026	
O	 0.2278788992	 1.3547845194	-0.0079949962	-0.434943
C	 0.2160929556	-0.030963742	 0.1853931325	 0.098384
C	 0.1632307171	-0.6014988997	 1.6570948889	-0.258542
C	-1.1772945326	-1.2429785038	 1.303415542	-0.116365
N	-2.0524696205	-0.1167676881	 0.8772044157	-0.389667
C	-1.1213967537	-0.7463809665	-0.0993910244	 0.316901
C	-1.6067496338	-1.2988132514	-1.4086308337	-0.43094
C	-2.009564982	-0.1908125586	-2.3729412189	 0.161311
O	-3.0112374074	-0.2095110038	-3.0393676876	-0.23943
H	-0.5862218195	 1.676773406	 0.4041395546	 0.291143
H	 1.0515501171	-0.4443887308	-0.3852402993	 0.09127
H	 0.9606328581	-1.3211483697	 1.8548017917	 0.107333
H	 0.1314756857	 0.1479853838	 2.4514598976	 0.110487
H	-1.6113581664	-2.1575423439	 1.6884106715	 0.101813
H	-2.983133428	-0.4926535903	 0.6973508622	 0.235474
H	-0.7945032746	-1.8675428588	-1.8853501818	 0.131647
H	-2.4567578694	-1.978052917	-1.283778752	 0.121529
H	-1.2955339648	 0.6605307653	-2.4180105927	 0.102596
