18
gdb 98676	4.45745	0.82856	0.73422	5.1915	70.9	-0.2482	0.0199	0.2681	1504.0796	0.146343	-476.224767	-476.21525	-476.214306	-476.260482	33.344	
O	 0.1655637762	 1.35968852	-0.494626638	-0.422059
C	 0.1090921005	-0.0061463872	-0.2115211042	-0.140793
C	-1.3532535847	-0.4395630208	-0.0724360285	 0.358428
O	-2.2502200026	 0.3854566228	-0.1996518787	-0.396402
N	-1.5843543369	-1.7403509012	 0.1800397081	-0.085288
C	-0.7285950832	-2.8999218161	 0.444267541	-0.191389
C	-2.0135686282	-3.7518569285	 0.6131839054	 0.102812
O	-2.0613076501	-4.3572503889	 1.8774901033	-0.422211
C	-2.8450151259	-2.4403198097	 0.4190861251	-0.199257
H	-0.7673936628	 1.6375852357	-0.5107786707	 0.293774
H	 0.5870235997	-0.5998814237	-1.00793253	 0.106276
H	 0.6439448072	-0.2443264061	 0.7228641406	 0.108204
H	-0.0647994763	-3.1782183571	-0.3805267204	 0.123245
H	-0.1530200004	-2.8322372807	 1.3741620749	 0.134201
H	-2.1627189643	-4.4778639939	-0.1943398757	 0.087801
H	-2.8719834941	-4.872117063	 1.9429237697	 0.292797
H	-3.3608047979	-2.1143463843	 1.3286842126	 0.126364
H	-3.5380027561	-2.4131253474	-0.4272444843	 0.123499
