16
gdb 65423	4.13735	0.84248	0.78876	3.3083	76.61	-0.2704	0.0083	0.2787	1427.7538	0.121672	-400.706771	-400.697464	-400.69652	-400.74127	33.949	
O	-0.0604866166	 1.3594428118	 0.1279936981	-0.440709
C	-0.0000884635	-0.0306613987	 0.0135755636	 0.216214
C	-0.6403131786	-0.8886050823	 1.0953626906	-0.32796
C	-1.3174477065	-0.7358984715	-0.2386441991	-0.037036
C	-2.5874539925	 0.0922116619	-0.3822737798	-0.387105
C	-3.7757185442	-0.6606235443	 0.0054000281	 0.304706
C	-4.7420286964	-1.299003127	 0.3254587182	-0.437885
C	 1.1866822077	-0.5297143141	-0.6497348075	 0.24987
N	 2.1475067506	-0.9172446967	-1.1641962333	-0.339869
H	 0.6060281011	 1.642730956	 0.7645833386	 0.300925
H	-0.1779857617	-1.8350052279	 1.3492297444	 0.140946
H	-1.0528649375	-0.3318471435	 1.9301763059	 0.135192
H	-1.2623635611	-1.5933083012	-0.9009900816	 0.128392
H	-2.4993888817	 1.0005032557	 0.2217935205	 0.149694
H	-2.6850352494	 0.427453618	-1.4222826015	 0.144894
H	-5.6033444997	-1.8526092063	 0.6067934348	 0.199732
