18
gdb 9396	5.27635	0.77829	0.70228	4.6423	69.09	-0.263	0.0238	0.2868	1538.0907	0.153103	-381.120277	-381.110612	-381.109668	-381.155395	33.443	
N	-0.1078322433	 1.495184564	 0.1490106581	-0.501839
C	 0.0300897287	 0.0440427059	 0.0088293515	-0.134217
C	 0.7234573884	-0.4722643965	-1.2779249454	-0.191924
C	-0.0303955868	-0.0871645232	-2.5521447954	-0.183137
C	 0.6256603082	-0.6389649501	-3.8121724919	-0.078239
O	-0.1381030774	-0.1962082964	-4.9218122463	-0.419887
C	 0.7440525085	-0.4788007808	 1.1870177064	 0.29801
N	 1.3331506916	-0.904869676	 2.0847836983	-0.319367
H	 0.7993161949	 1.9441284152	 0.0589367033	 0.238846
H	-0.6975563862	 1.8553358604	-0.5937675699	 0.243213
H	-0.9840714473	-0.3759019636	 0.0424072721	 0.134292
H	 1.7472516611	-0.0774459161	-1.3037148307	 0.110468
H	 0.811876368	-1.5634914837	-1.2094097457	 0.119287
H	-1.062976918	-0.4563725288	-2.5088549618	 0.111
H	-0.0880276212	 1.0028588783	-2.6519127204	 0.104165
H	 1.6673555918	-0.2833187395	-3.8742113747	 0.089176
H	 0.6607417778	-1.7393590069	-3.7617932094	 0.09106
H	 0.2603565613	-0.547489532	-5.7233604682	 0.289093
