22
gdb 103976	3.30346	1.2126	1.08324	1.8603	82.74	-0.2274	0.0815	0.3089	1230.7347	0.192198	-404.284571	-404.275027	-404.274083	-404.318199	36.596	
C	 0.5848350195	 0.7890998435	 0.9856255134	-0.247154
O	 0.1299956405	-0.5442517627	 0.9191095318	-0.284979
C	-1.2751561237	-0.7329457545	 0.7766500563	 0.413692
C	-2.037782292	-0.1371594882	 1.9540923747	-0.47299
C	-1.728007545	-0.43015395	-0.6987785597	-0.324266
C	-1.7411920376	-1.9481299653	-0.9768834396	-0.042876
C	-1.411381151	-2.2453474823	 0.4666365424	-0.091992
N	-2.6535101647	-2.6711945695	-0.1282034925	-0.079609
C	-3.990412044	-2.2144370683	 0.2141791289	-0.31354
H	 1.6762161171	 0.7498357964	 0.9387110073	 0.126957
H	 0.2224034278	 1.3979276181	 0.1439539174	 0.102755
H	 0.2964774828	 1.2886576801	 1.920704805	 0.108829
H	-1.9797907228	 0.956226062	 1.9595737063	 0.116569
H	-3.0939034383	-0.4068781034	 1.9272483426	 0.121996
H	-1.61365416	-0.5061734166	 2.8937214149	 0.12414
H	-2.6738440976	 0.1011961164	-0.8434869534	 0.094572
H	-0.9436657173	 0.089180838	-1.2518143316	 0.112047
H	-1.3766141754	-2.423972175	-1.8811224612	 0.090444
H	-0.7475451834	-2.9893420687	 0.8951637334	 0.093824
H	-4.136274387	-1.126491374	 0.1913066982	 0.106597
H	-4.6942725821	-2.6571030019	-0.4984289946	 0.120598
H	-4.2513739359	-2.5781809441	 1.2127870301	 0.124385
