14
gdb 15732	2.99611	1.69575	1.2606	2.0788	63.82	-0.2495	-0.0379	0.2116	955.5651	0.104165	-382.489371	-382.48123	-382.480286	-382.522789	28.53	
O	-0.1863388202	-0.7561832186	-0.1769365548	-0.293099
C	-0.1168916866	 0.4472647373	-0.181737343	 0.356308
C	 0.7010217299	 1.2301347983	 0.8609808539	-0.429181
C	 1.985765486	 1.619551119	 0.2944157053	 0.312297
C	 3.0417170547	 1.9114226163	-0.1982071168	-0.448422
C	-0.8335970262	 1.2448564792	-1.2360740253	-0.009206
C	-1.8494595557	 2.246375342	-0.8475235386	-0.172108
O	-0.572496245	 2.6429525543	-1.3226581394	-0.206743
H	 0.1548500863	 2.1237374157	 1.1830023704	 0.145551
H	 0.8392154935	 0.5713681301	 1.723400561	 0.152511
H	 3.9760364181	 2.1819147271	-0.6240546397	 0.203843
H	-0.962266829	 0.7195513779	-2.1806832183	 0.125699
H	-2.6862407858	 2.4245886032	-1.5202967788	 0.135921
H	-2.0453232901	 2.4418001082	 0.2058538441	 0.126628
