19
gdb 72621	2.52418	1.46297	1.20849	0.9329	83.5	-0.2261	0.0377	0.2638	1116.5843	0.156766	-385.833948	-385.824729	-385.823785	-385.867206	35.538	
C	 0.0792900655	 1.6084786187	-0.0112451056	-0.497677
C	 0.1191147389	 0.1101542919	 0.0134637497	 0.248031
C	 0.5990672067	-0.7875586368	-1.1381701938	-0.286335
C	 1.2151257238	-1.7893966534	-0.1027148669	-0.29079
C	 0.6764369401	-0.9075570252	 1.0114049664	 0.396725
O	 1.3260914632	-0.7795049873	 2.2152463313	-0.460314
C	-0.8349503006	-0.7496576634	 0.8680999038	-0.345731
C	-1.4710852629	-0.1374847627	 1.9947680295	 0.264838
C	-1.9408770755	 0.3504896885	 2.9922076988	-0.409178
H	 1.0480953039	 2.0164633577	-0.3199354881	 0.119797
H	-0.677171298	 1.9743104225	-0.7162490321	 0.121222
H	-0.1625121661	 2.0152882024	 0.9743290733	 0.131457
H	-0.1826514885	-1.1869923282	-1.792680268	 0.097414
H	 1.3595951948	-0.3038285087	-1.7555267466	 0.107261
H	 0.8635849072	-2.8259544745	-0.1225062365	 0.099078
H	 2.3070895689	-1.7845391175	-0.1290980926	 0.117175
H	 0.6838390253	-0.4871614957	 2.877003835	 0.289051
H	-1.4170630815	-1.5331285726	 0.3821354034	 0.100184
H	-2.398275035	 0.7944252243	 3.8416592891	 0.197791
