20
gdb 111391	2.20446	1.5585	1.02064	4.1433	81.47	-0.2314	0.0304	0.2618	1210.8453	0.170639	-403.139136	-403.130192	-403.129248	-403.173551	33.122	
C	 0.0680567958	 1.607812744	 0.1226358521	-0.402465
C	 0.0205567133	 0.0769851788	 0.0653033113	-0.189185
C	 0.6743341352	-0.5255421395	-1.175109437	 0.039928
C	 0.8471364206	-2.0575358881	-1.2647758265	-0.109718
C	-0.4764726866	-2.770857063	-1.4214043276	-0.295085
C	 0.1087705294	-2.0349739622	-2.5937464354	-0.01352
N	-0.1031337337	-0.6078820837	-2.4443239282	-0.052229
C	-0.7939923916	 0.2701972367	-3.1996970695	 0.136265
O	-0.9325246257	 1.4586976513	-2.9824156055	-0.336538
H	 1.1047085018	 1.963470375	 0.1399180851	 0.10691
H	-0.4225551094	 2.0422949418	-0.7505750428	 0.170932
H	-0.4226155994	 1.9753448473	 1.0290998425	 0.105777
H	 0.5492219521	-0.3430364699	 0.9317339155	 0.102214
H	-1.0147313985	-0.2741263201	 0.1363897923	 0.101884
H	 1.6311470148	-0.0252858439	-1.3715665144	 0.098304
H	 1.7588130793	-2.5801430966	-1.0121224585	 0.105676
H	-0.3965379634	-3.8526332726	-1.4672125732	 0.122418
H	-1.3798364152	-2.4009294291	-0.9470875457	 0.123402
H	 0.3594669951	-2.4764202112	-3.5503468219	 0.11635
H	-1.2236787639	-0.232142155	-4.0920126925	 0.068678
