15
gdb 125451	5.89429	0.95665	0.8273	3.5512	72.2	-0.2361	-0.0156	0.2205	1338.7181	0.113178	-450.138217	-450.129788	-450.128844	-450.172254	29.467	
C	-0.1523317351	 1.527910774	 0.0102849486	-0.494432
C	-0.0628828528	 0.0449836289	-0.0319007517	 0.435632
N	-1.004768752	-0.8223890823	 0.1873552347	-0.37994
C	-0.3369652064	-2.0173644261	 0.0072249649	 0.468531
N	-1.0533649188	-3.1804703637	 0.1671236003	-0.385616
C	-0.6252934797	-4.4891202712	 0.044262273	 0.068641
N	 0.5646727842	-4.8105077403	-0.2520566696	-0.403896
N	 0.9337156907	-1.9156769827	-0.3031356566	-0.182351
O	 1.112862868	-0.509290593	-0.3279085286	-0.200992
H	 0.5393573006	 1.9325790564	 0.7550812277	 0.159996
H	 0.1185764351	 1.955948806	-0.9594069753	 0.159996
H	-1.1703073471	 1.8223113204	 0.2641361682	 0.160278
H	-2.0187037699	-3.0225820165	 0.4061088025	 0.269245
H	-1.4534225011	-5.1815796386	 0.2379883027	 0.09591
H	 0.6555007544	-5.8236239413	-0.2881530809	 0.228999
