18
gdb 34647	3.31222	1.1794	0.91594	4.6795	85.39	-0.2568	-0.0352	0.2216	1254.6307	0.149543	-364.841748	-364.833596	-364.832652	-364.874833	30.816	
N	 0.0390073721	-1.2022238389	-0.2327389389	-0.341685
C	-0.0233038347	-0.050594232	-0.1183030511	 0.222758
C	-0.0498819339	 1.3758032577	 0.0229009839	 0.13413
C	-1.2540517509	 1.9728876714	 0.0346266659	-0.088632
C	-1.5986541166	 3.4318036589	 0.1189938015	-0.246939
C	-0.4545561729	 4.4241579122	-0.1456993862	-0.267727
C	 0.6546082686	 4.3220218681	 0.8696600215	-0.051452
C	 1.4313595886	 3.2494016864	 0.9960101044	-0.053302
C	 1.3321229501	 2.0168363646	 0.1269567954	-0.35591
H	-2.1172302178	 1.3142628382	-0.0336761958	 0.114067
H	-2.4135678241	 3.6179574745	-0.5936318662	 0.116355
H	-2.0349193612	 3.6271786111	 1.1098932462	 0.127713
H	-0.0594477503	 4.2416710854	-1.1543961978	 0.116732
H	-0.8667531023	 5.4373597443	-0.1558764073	 0.106236
H	 0.8050230664	 5.1667640778	 1.5367584215	 0.094715
H	 2.2104642273	 3.2380660483	 1.7530412106	 0.099031
H	 2.0212760272	 1.2550362679	 0.5000353361	 0.133214
H	 1.6857010643	 2.2465139742	-0.8902580437	 0.140696
