13
gdb 33281	3.38123	0.83811	0.7053	5.8999	85.66	-0.266	-0.0529	0.2131	1503.41	0.087893	-378.386071	-378.377511	-378.376567	-378.419869	30.707	
C	 0.0221217882	-1.1685129997	-0.0130894493	-0.442958
C	-0.0129797923	 0.0323031766	 0.0161908665	 0.263774
C	-0.0349588804	 1.4730856781	 0.0359505446	-0.06038
C	 0.5348295737	 2.1737996502	 1.248457891	-0.249988
N	 1.2637081992	 2.2127276353	-0.0084142303	-0.32212
C	-1.1117087854	 2.0922680407	-0.6921201425	 0.103124
C	-2.0310969203	 2.6037915707	-1.285029685	 0.079679
C	-3.0671114673	 3.1856903246	-1.9561626758	 0.199511
N	-3.9504939596	 3.6808733696	-2.52552432	-0.33309
H	 0.0441600196	-2.2304937246	-0.0393976045	 0.21382
H	 0.0874289403	 3.115451587	 1.5505096966	 0.14944
H	 0.8783550984	 1.5316295675	 2.0539602618	 0.143478
H	 2.015501136	 1.5263331039	-0.009026143	 0.25571
