19
gdb 74668	3.29133	1.66051	1.30103	0.3955	87.56	-0.1854	-0.0137	0.1717	1022.4719	0.160568	-348.699112	-348.691831	-348.690887	-348.730381	29.848	
C	-0.0114729217	 1.5062268986	 0.1926114549	-0.497081
C	-0.196751111	 0.0358751736	 0.0442590496	 0.253833
C	 0.0726338723	-0.7605211448	-1.0084466627	-0.173909
C	-0.2480899413	-2.2147055213	-0.7269332659	-0.077273
C	 0.1272410195	-3.1268134636	 0.5446833025	-0.047617
C	 1.0078863279	-2.7486635632	 1.7410861755	-0.26234
C	 0.6045911794	-1.2941259727	 1.9626279376	-0.097761
C	-0.4209908825	-0.9628798038	 1.1566878475	 0.007498
C	-1.0418317477	-2.2098392526	 0.5344309576	-0.120542
H	 0.7441941399	 1.7368311743	 0.9553480141	 0.127669
H	 0.3064572056	 1.9656120471	-0.747401457	 0.124231
H	-0.9391857344	 1.9924078326	 0.5176583949	 0.130566
H	 0.4412148998	-0.4171845184	-1.9690505569	 0.089668
H	-0.5561093931	-2.8305318516	-1.5671967437	 0.082543
H	-0.0009844661	-4.1830538009	 0.3210597311	 0.080133
H	 0.842302588	-3.4430873959	 2.5801631553	 0.100861
H	 2.0854972631	-2.7766884103	 1.5295333527	 0.110051
H	 1.3224908705	-0.5736317424	 2.3441611913	 0.089313
H	-2.0937239183	-2.4608202348	 0.6368727214	 0.080156
