20
gdb 85934	2.72356	1.26345	1.06792	3.0971	76.14	-0.2355	0.0349	0.2704	1212.5234	0.17015	-440.338664	-440.32917	-440.328226	-440.372671	35.462	
C	-0.1144238644	 1.3009536506	 0.3575994854	-0.343886
N	-0.0432812653	-0.0967301567	 0.0032843142	-0.070889
C	-1.1380184028	-0.7966581474	-0.6389434842	-0.201636
C	-0.7121641717	-2.2847085522	-0.5987911172	 0.381905
C	-1.2924955367	-2.995080145	 0.6269093856	-0.439412
O	-1.1929184707	-2.8780845483	-1.7989843013	-0.474206
C	 0.8274434948	-2.1952805641	-0.5256866766	-0.399491
C	 1.1209329979	-0.8194020369	 0.0711760264	 0.410297
O	 2.1780560616	-0.4188215936	 0.5121461011	-0.395912
H	 0.8410711127	 1.5762869432	 0.8069780583	 0.165424
H	-0.2914596415	 1.9304425243	-0.5244836391	 0.123074
H	-0.9222398924	 1.4831098863	 1.0764243242	 0.121964
H	-2.081718348	-0.6216940378	-0.108994359	 0.105685
H	-1.2733387638	-0.4824287264	-1.6832823729	 0.116555
H	-2.3847454951	-3.0153057416	 0.5722624514	 0.125686
H	-0.9278110025	-4.0275002763	 0.6849929435	 0.111675
H	-0.9961396194	-2.4885719477	 1.5510437213	 0.131387
H	-1.0329470963	-3.8262822095	-1.747530583	 0.278825
H	 1.3003195813	-2.9820817317	 0.0665475156	 0.119592
H	 1.2468778624	-2.2295838993	-1.5368935239	 0.133362
