12
gdb 53723	3.64599	0.69846	0.64442	3.8279	76.65	-0.2766	-0.0956	0.181	1658.8818	0.07438	-435.453185	-435.443677	-435.442733	-435.489532	31.826	
N	 0.2943170104	 1.1219925719	 0.4363586774	-0.521681
C	-0.1966924667	 0.2771197858	-0.5103217733	 0.278656
O	 0.2789353649	 0.1339171624	-1.6180023171	-0.320763
C	-1.3849315317	-0.4606325455	-0.0890739484	-0.008764
C	-2.364354225	-1.1088033816	 0.1931781867	 0.073273
C	-3.52421754	-1.8994243858	 0.5494332421	 0.156358
O	-3.4563739997	-2.8540630339	 1.2967183852	-0.25734
C	-4.7618252471	-1.4552244534	-0.0546459719	 0.288368
C	-5.7920955178	-1.0880458254	-0.5565198094	-0.465155
H	 1.1421336977	 1.6252457297	 0.2297707588	 0.274828
H	-0.0791800634	 1.1446687473	 1.3695973189	 0.275151
H	-6.7054697616	-0.7698482115	-0.9983326491	 0.227066
