17
gdb 79513	3.39084	1.57032	1.22961	2.1544	73.01	-0.2291	0.0133	0.2423	1012.3974	0.137839	-417.965675	-417.958261	-417.957317	-417.998516	28.014	
C	-0.0232010614	 1.4267659356	-0.0446106643	-0.35082
N	-0.0085352026	-0.0117388463	 0.0336896815	-0.0911
C	-1.1376466024	-0.918871658	-0.0355714888	 0.021679
C	-0.8155758881	-2.1703387481	 0.8316859991	-0.038949
N	-1.6151814775	-3.0117896337	-0.130311928	-0.337996
C	-0.791113724	-2.0974882841	-0.9990101631	-0.042661
C	 0.4747707313	-2.2051179237	-0.067382889	-0.187705
C	 1.1116989434	-0.8134127462	-0.0120461653	 0.413908
O	 2.2727817683	-0.4722010827	-0.0194900711	-0.393346
H	 1.0169022776	 1.7595266953	-0.0168972505	 0.164559
H	-0.4824378971	 1.7847148632	-0.9750347577	 0.125028
H	-0.5597222741	 1.8733703118	 0.8007385092	 0.127001
H	-2.1274486922	-0.4694448322	-0.0279355406	 0.103468
H	-0.8823777645	-2.2807079956	 1.9155533403	 0.091856
H	-1.2144104823	-3.9530675536	-0.1624216317	 0.214595
H	-0.8283623613	-2.1241721903	-2.0896906656	 0.091913
H	 1.1227416868	-3.0790131916	-0.0935763944	 0.088568
