21
gdb 67736	3.21611	1.5177	1.33773	0.3432	87.11	-0.2163	0.0218	0.2382	1070.8616	0.182702	-349.938423	-349.930385	-349.929441	-349.970082	33.298	
C	-0.0269187275	 1.4893943792	 0.0607520028	-0.496484
C	-0.0016412745	-0.0174966878	-0.0352623988	 0.327508
C	 0.9711076915	-0.7097717872	-0.9349771698	-0.161459
C	 0.5458966965	-1.9476983491	-1.2004404902	-0.137835
C	-0.705402273	-2.2368079477	-0.393024586	 0.272823
C	-1.6245138534	-3.333779875	-0.8886043535	-0.496695
C	-0.2279164831	-2.2987646696	 1.1194812033	-0.265742
C	-0.4788880426	-0.8018437253	 1.221481717	-0.108678
C	-1.2794959832	-0.8123836597	-0.0612260366	-0.149413
H	 0.9051980995	 1.8786775726	 0.4861987997	 0.117762
H	-0.1587180854	 1.9456712474	-0.9268028123	 0.118661
H	-0.8485732044	 1.8321324062	 0.6980663191	 0.114786
H	 1.8982053999	-0.257500804	-1.2679487789	 0.089895
H	 1.0774941071	-2.7094696283	-1.759606822	 0.089548
H	-1.1026099884	-4.296946122	-0.9267182717	 0.115022
H	-2.4929837276	-3.4522706262	-0.2319751199	 0.112653
H	-1.9928704456	-3.1146134889	-1.8971385843	 0.117317
H	-0.958791528	-2.8445713396	 1.7241371484	 0.097293
H	 0.7768136372	-2.690612145	 1.3122015006	 0.086922
H	-0.6678837856	-0.2522869274	 2.137013311	 0.07969
H	-2.2639495995	-0.4202770124	-0.2942872181	 0.076426
