21
gdb 115970	3.32957	1.03845	0.82432	2.4768	81.51	-0.2394	0.0227	0.2621	1419.4566	0.182682	-424.23841	-424.229238	-424.228294	-424.272246	34.738	
C	 0.0149867683	 1.5060242297	 0.0037469074	-0.476281
C	-0.0077832339	 0.0036891093	-0.0201465668	 0.307619
C	-0.0604895945	-0.7075319615	-1.1467572267	-0.158942
C	-0.039576804	-2.2105124815	-1.1665418049	-0.123195
O	 0.3134889012	-2.7745629397	 0.083134138	-0.277182
C	-0.3717548718	-2.1714124771	 1.1795332011	 0.092505
C	-0.0245190694	-3.0273565811	 2.391498035	-0.066084
O	-0.4076008448	-4.3727558254	 2.1996769437	-0.427424
C	 0.0323681583	-0.7031261428	 1.3169350714	-0.30744
H	 0.9101008146	 1.8781002533	 0.5191505971	 0.125023
H	 0.0050269144	 1.927530207	-1.004975794	 0.121206
H	-0.8472227496	 1.906923069	 0.5522143207	 0.123326
H	-0.1182948517	-0.2138758152	-2.1140866299	 0.083448
H	-1.0190432754	-2.6006939924	-1.5003088896	 0.098423
H	 0.7055430664	-2.5744836992	-1.8843002125	 0.116582
H	-1.4582866817	-2.2374067755	 1.0019420545	 0.073073
H	 1.0570881827	-2.9383964238	 2.5874900695	 0.088137
H	-0.5578669621	-2.6578124701	 3.2737177056	 0.104739
H	-0.0732277362	-4.6098131388	 1.3259634957	 0.288118
H	 1.039702904	-0.6268485343	 1.7518394051	 0.11051
H	-0.6436247646	-0.2027843399	 2.0232809996	 0.103839
