13
gdb 27091	3.46123	1.14333	0.8729	5.2705	62.43	-0.211	0.0023	0.2133	1210.9601	0.08935	-489.928435	-489.920424	-489.91948	-489.961792	28.328	
O	-0.0534725508	 1.3140271033	 0.0807684789	-0.434686
C	 0.0485952729	-0.0271613071	-0.0252952168	 0.295701
C	 0.2590876172	-0.8951004315	-1.0624040127	 0.225063
O	 0.4706751579	-0.5038689299	-2.3634481869	-0.236842
C	-0.0883477534	-1.2604791191	-3.3533479888	 0.15592
O	 0.0781776978	-0.9969779594	-4.5033861476	-0.265804
N	 0.2874560587	-2.1890011644	-0.6273878029	-0.312673
C	 0.0889382963	-2.1207175609	 0.6690024175	 0.005026
N	-0.0560552553	-0.8233797425	 1.0867597866	-0.297305
H	 0.0853402525	 1.6907463514	-0.7962286362	 0.321668
H	-0.6730692285	-2.1034270219	-2.9551765357	 0.119917
H	 0.0443145728	-2.9550133902	 1.3502856415	 0.142958
H	-0.1968769883	-0.4907284277	 2.0263956929	 0.281056
