16
gdb 26634	3.24334	1.26245	0.91832	5.9079	79.16	-0.2223	-0.0014	0.2209	1208.9619	0.125507	-396.991012	-396.981885	-396.980941	-397.02641	32.244	
C	-0.0788508237	 1.4952784862	 0.0584778146	-0.515139
C	-0.0104828801	 0.0015557954	 0.0262903278	 0.136701
C	 0.0103792041	-0.8049883228	-1.0902412761	 0.186055
N	-0.0133199071	-0.5513534307	-2.4795103132	-0.614762
N	 0.0754484705	-2.1188139487	-0.665275851	-0.251806
C	 0.0957535911	-2.1810994713	 0.6892711906	-0.17489
C	 0.0454530815	-0.8789203325	 1.1606210697	 0.089009
C	 0.0457616788	-0.4883472781	 2.5207653855	 0.196324
N	 0.0444272081	-0.1439085098	 3.6277930816	-0.363039
H	 0.8056220164	 1.9317511758	 0.5357757376	 0.141969
H	-0.1481255189	 1.9015834856	-0.9547931462	 0.107289
H	-0.9497595919	 1.8471940444	 0.6221095577	 0.143039
H	 0.7332006584	 0.0724929188	-2.7653822119	 0.250824
H	-0.8901978231	-0.1391293849	-2.7808395176	 0.250244
H	 0.1113188834	-2.896841398	-1.3025139384	 0.270917
H	 0.1431403124	-3.1145589893	 1.2245739194	 0.147265
