22
gdb 122857	4.4741	0.54937	0.51346	1.7197	82.12	-0.2517	0.0318	0.2836	2197.6414	0.192072	-441.479342	-441.468254	-441.46731	-441.517217	37.825	
C	-0.3599323602	 1.3120714865	 0.4956724897	-0.227356
O	-0.4299534068	-0.0755574909	 0.7121290393	-0.230877
C	 0.8299393772	-0.6560652417	 0.9671740278	-0.049649
C	 0.6397770181	-2.151672647	 1.1785845987	-0.197664
C	 1.969108407	-2.8668843776	 1.4713287213	-0.253879
C	 1.7932045437	-4.3476799516	 1.6862594547	 0.390446
N	 2.2710844858	-5.2026219581	 0.8803999048	-0.526045
O	 1.0689623689	-4.5721851969	 2.8193178528	-0.227393
C	 0.7789418689	-5.9180165219	 3.1613563544	-0.263551
H	 0.2696340444	 1.5605303028	-0.3740218198	 0.10233
H	-1.3762524518	 1.666964796	 0.3072621415	 0.12559
H	 0.0449440046	 1.8441792544	 1.3717901648	 0.101298
H	 1.5171515586	-0.4698765176	 0.1227388282	 0.084846
H	 1.290808102	-0.1970827541	 1.8604176334	 0.081803
H	-0.0580357157	-2.3078708647	 2.0066412884	 0.119663
H	 0.1775972109	-2.5790349079	 0.2817480417	 0.115487
H	 2.6691201445	-2.7402396534	 0.6426939031	 0.126361
H	 2.4245136173	-2.4368169953	 2.3721413882	 0.113677
H	 2.0636247025	-6.1629319937	 1.1512547049	 0.213265
H	 1.6957518646	-6.4924886411	 3.3426441459	 0.129972
H	 0.1915593824	-5.8786232312	 4.0795086491	 0.140521
H	 0.1935119532	-6.4138440352	 2.3773573872	 0.131157
