19
gdb 98359	1.89097	1.47725	0.90813	2.1541	74.28	-0.2391	0.008	0.2471	1308.2844	0.158475	-456.411049	-456.400731	-456.399787	-456.446933	35.797	
C	-0.5338034764	 0.9180111597	-1.083067062	-0.335572
N	-0.6050566953	-0.4727678814	-0.6801389595	-0.308176
C	-0.9028637795	-0.8464186619	 0.5890946726	 0.399455
O	-1.0751605327	-0.076511904	 1.5191815388	-0.382262
C	-1.0023771039	-2.3843076362	 0.7701569598	-0.0697
C	-0.9958157151	-2.7635811618	 2.2452626798	-0.410667
N	-2.2076623818	-2.9081806683	 0.1183349624	-0.26478
C	-2.2753869346	-3.1879530831	-1.2009767815	 0.158736
O	-1.3747472206	-2.9930315205	-2.0020287026	-0.343399
H	 0.4212926685	 1.134273573	-1.57315395	 0.126555
H	-1.3445613686	 1.178799041	-1.7735210719	 0.125744
H	-0.6229870688	 1.5299193231	-0.1848004618	 0.164388
H	-0.5716024112	-1.2020710582	-1.3839452095	 0.271851
H	-0.1553422769	-2.8436380011	 0.2498365087	 0.120212
H	-1.078209469	-3.8476948939	 2.363121829	 0.114244
H	-0.0693947496	-2.4268894472	 2.71419188	 0.142853
H	-1.8176026441	-2.270986779	 2.7720042573	 0.139038
H	-3.0290951951	-3.0498952086	 0.6859213039	 0.256965
H	-3.2463866152	-3.6281440816	-1.4936041735	 0.094514
