13
gdb 561	9.72204	2.56437	2.11019	4.2072	52.08	-0.2396	0.0265	0.2661	586.133	0.108991	-286.498779	-286.492684	-286.49174	-286.529456	20.138	
O	 0.0143110536	-0.0146223524	 0.3903395489	-0.332646
C	 0.0406820369	 1.1923494227	 0.2532350317	 0.129141
N	 1.1452603515	 1.9028077722	-0.0528657357	-0.028285
C	 2.5197041632	 1.4613333861	-0.2888162627	-0.15803
C	 2.9039452791	 2.9513000738	-0.5306794867	-0.235944
C	 1.4153857628	 3.3276149835	-0.2637351141	-0.169229
H	-0.851753778	 1.8433236487	 0.3668907449	 0.064327
H	 2.9812730662	 0.9830562078	 0.5808985255	 0.125558
H	 2.6234518996	 0.7942198518	-1.1504309865	 0.125564
H	 3.6103554121	 3.3626527481	 0.1903285735	 0.121107
H	 3.2524655094	 3.1741275993	-1.5391277954	 0.121111
H	 0.8827111358	 3.7640021666	-1.1159728268	 0.118665
H	 1.2416548377	 3.9527222818	 0.6191884433	 0.11866
