16
gdb 51412	4.25268	1.05825	1.00001	1.6273	71.53	-0.2484	-0.0098	0.2386	1199.7459	0.124266	-437.822498	-437.814952	-437.814007	-437.856466	28.112	
N	 0.0098986896	 1.3593006416	 0.078958144	-0.438176
C	 0.0196729623	 0.1003402458	 0.0189100075	 0.119544
O	-1.1219712218	-0.5916947947	 0.2242264736	-0.189218
C	-1.0744793627	-1.9900231297	 0.1497468567	 0.155645
C	-1.7650557855	-2.8554783792	 1.2539001264	-0.041266
C	-3.1946090828	-2.2921711466	 1.2582383561	-0.063569
C	-3.4657330432	-2.231876065	-0.0462721679	-0.063564
C	-2.1629548368	-2.7669815424	-0.6605812083	-0.04126
O	-1.8492027886	-3.8928543287	 0.222805061	-0.280369
H	 0.9442306584	 1.7219399444	-0.0984276309	 0.231671
H	 0.8873825321	-0.5400653817	-0.1908734853	 0.09095
H	-0.0662842992	-2.349926216	-0.0764303588	 0.102678
H	-1.2810288899	-3.1656289888	 2.1782070949	 0.088575
H	-3.7805199586	-2.0122943474	 2.1200788776	 0.11989
H	-4.3407826492	-1.887696911	-0.5756316484	 0.119891
H	-2.0921674743	-2.9852214106	-1.7246193781	 0.088577
