18
gdb 63285	2.15038	1.65906	1.26139	4.8455	73.32	-0.2332	-0.0296	0.2036	1069.515	0.145243	-439.06262	-439.053614	-439.05267	-439.096252	34.055	
C	-0.3223406475	 1.514718776	 0.0423287648	-0.458053
C	 0.0292284643	 0.0328772884	-0.0047910294	 0.299264
O	-1.1170952684	-0.7678734051	-0.2346727561	-0.476401
C	 1.2794908319	-0.3181747285	-0.8881187242	-0.424799
C	 2.0329371012	-0.7233120009	 0.3974995279	 0.369558
O	 3.1635311708	-1.0287419424	 0.6427242671	-0.301078
C	 0.7867944053	-0.5171278669	 1.2279121786	 0.215101
C	 0.596909345	-0.1877398113	 2.6645980507	-0.303681
N	 0.252360417	-1.5152324632	 2.1604294896	-0.343809
H	 0.5537486893	 2.1226106638	 0.2866395868	 0.130113
H	-0.699986417	 1.8544522248	-0.9302123328	 0.114346
H	-1.0949345293	 1.7044806275	 0.7939361238	 0.125871
H	-1.6222773514	-0.3815994181	-0.9577302557	 0.283199
H	 1.090847989	-1.1818814866	-1.5325749794	 0.139301
H	 1.7288332553	 0.486606923	-1.475846564	 0.123305
H	 1.4675214403	-0.1564126573	 3.3136997229	 0.138445
H	-0.1964872408	 0.5134542377	 2.9137591421	 0.118371
H	-0.7492131549	-1.5856391309	 1.981924127	 0.250948
