22
gdb 6807	6.42249	0.65417	0.61815	2.3805	76.42	-0.2496	0.0715	0.3211	1856.0025	0.197593	-387.334199	-387.323661	-387.322717	-387.370339	36.75	
C	 0.0208899937	 1.3960870123	-0.0246420738	-0.225798
O	 0.0222770977	-0.0093383726	-0.020387616	-0.228862
C	-1.2764450461	-0.560725545	 0.0051648095	-0.051497
C	-1.1636059982	-2.0783596656	 0.0133908607	-0.192828
C	-2.5266788139	-2.7738152785	 0.0531758027	-0.195834
C	-2.4274003692	-4.3038765692	-0.0226239787	 0.137399
C	-3.7935542586	-4.9807157699	 0.0933308215	-0.402404
O	-1.7424852181	-4.7275997458	-1.2001795867	-0.426469
H	 1.0625688737	 1.7264172202	-0.0427084836	 0.125125
H	-0.4956318266	 1.8040342206	-0.9088705341	 0.099879
H	-0.4665431994	 1.809288464	 0.8735340108	 0.100004
H	-1.8237719841	-0.2074078614	 0.8978492989	 0.07839
H	-1.853534201	-0.2218329943	-0.874326545	 0.078117
H	-0.612999631	-2.4043944742	-0.8741600842	 0.118893
H	-0.5646393254	-2.3792903163	 0.8816386271	 0.103248
H	-3.0656911683	-2.4995799734	 0.9698803328	 0.094155
H	-3.1519242609	-2.4238565002	-0.7830750786	 0.081432
H	-1.7866343704	-4.652930281	 0.797397537	 0.088985
H	-4.4622854795	-4.6453649698	-0.7099121084	 0.104395
H	-3.6872194423	-6.0661718252	 0.0173011028	 0.123993
H	-4.276249168	-4.7433655765	 1.0469883699	 0.115088
H	-2.292214174	-4.4908473185	-1.9558525247	 0.274589
