19
gdb 65729	3.72453	1.08635	0.99602	3.8806	77.67	-0.2422	0.0185	0.2607	1246.8706	0.158434	-419.152274	-419.143636	-419.142692	-419.185578	32.784	
C	-0.0450635671	 1.6555001675	 0.08355677	-0.447541
C	 0.0285557961	 0.1374507143	 0.0189149428	 0.386717
C	 1.079152672	-0.5708504836	-0.8914742068	-0.229583
N	 1.6139022256	-1.3891225104	 0.2541579198	-0.121996
C	 2.1411139276	-0.41060435	 1.2201235544	-0.251374
C	 0.6815731724	-0.6186703889	 1.1743752751	-0.068996
O	-1.2891417253	-0.4165520894	-0.1279114034	-0.231604
C	-1.9129442427	-0.2514922316	-1.3105178925	 0.113386
N	-3.1138770317	-0.6180048655	-1.4439997681	-0.440145
H	 0.9344891122	 2.0877256319	 0.3019771846	 0.12351
H	-0.3917932533	 2.077689545	-0.865367868	 0.121596
H	-0.7445477316	 1.9605524027	 0.8676220468	 0.14
H	 0.6273985555	-1.2250082713	-1.6383944945	 0.126421
H	 1.8311136649	 0.0668425778	-1.3688461381	 0.104083
H	 2.6798353002	-0.8745690833	 2.0404968007	 0.130324
H	 2.5859551706	 0.512723612	 0.854634578	 0.112216
H	 0.1157015979	-1.1037616248	 1.9620811238	 0.113751
H	-1.284174095	 0.1970320967	-2.0906235116	 0.090931
H	-3.4251049784	-0.4434398392	-2.3973318631	 0.228302
