18
gdb 78252	2.6106	1.36506	1.19764	3.1682	73.95	-0.238	0.0186	0.2566	1105.9692	0.146838	-439.064201	-439.055544	-439.0546	-439.097653	32.356	
C	-0.1521093873	 1.6003699119	-0.0096540069	-0.423222
C	 0.0758436747	 0.0973378388	-0.0425741646	 0.046583
C	 0.7138434208	-0.5752068886	-1.2756053302	-0.169547
C	 2.1993879404	-0.2931179335	-1.3886120115	 0.134988
O	 2.8164402607	 0.922476177	-1.108322174	-0.427526
C	 1.7391404872	-1.2381552384	-0.3277039043	-0.096647
N	 1.1916598573	-0.4519943311	 0.7711166084	-0.076667
C	 1.2778406061	-0.5981044003	 2.1159084665	 0.123184
O	 0.5416619508	-0.0571316475	 2.9150601952	-0.33089
H	 0.7292341802	 2.1456043321	-0.35145155	 0.133285
H	-0.9875727668	 1.856967632	-0.6692397692	 0.122407
H	-0.406273648	 1.9138832287	 1.0059297026	 0.151001
H	-0.8445722645	-0.4270400435	 0.2400119056	 0.106763
H	 0.1499817514	-1.0233825883	-2.0827689692	 0.105178
H	 2.6538342294	-0.7722412076	-2.2519632087	 0.117763
H	 2.7673117782	 1.0533943638	-0.1528915395	 0.291463
H	 2.0459586031	-2.2683968671	-0.1894714302	 0.116601
H	 2.1158449362	-1.2647712985	 2.4066701299	 0.075283
