18
gdb 95040	2.59744	1.85449	1.30829	0.5557	70.08	-0.254	0.0132	0.2672	979.8906	0.15093	-439.115604	-439.108416	-439.107472	-439.147232	28.635	
O	 0.0712996027	 1.3583931108	-0.1546338283	-0.440268
C	 0.0358917952	-0.0297004639	 0.0706613264	 0.143856
C	 0.5449089307	-0.5059518198	 1.4456407087	-0.25416
C	 0.0093338324	-1.942278186	 1.5416621238	-0.219914
C	-1.4095558941	-1.8642843164	 0.9284008096	-0.010405
N	-2.422074318	-1.5112266997	 1.9451708853	-0.258691
C	-2.8308742543	-0.3513655972	 1.651445176	 0.112139
O	-2.3421023974	 0.2840596546	 0.5531257966	-0.248972
C	-1.3798824583	-0.6396059545	-0.0343470154	 0.039662
H	-0.6945702358	 1.7288352	 0.3013148498	 0.285588
H	 0.6557570729	-0.4834283886	-0.7131202793	 0.091045
H	 1.631408349	-0.4351773074	 1.5311914052	 0.105661
H	 0.110451384	 0.1225329698	 2.2324506565	 0.106067
H	 0.6298420499	-2.6200693884	 0.9438796226	 0.101272
H	-0.0252480332	-2.3335434644	 2.560347415	 0.119356
H	-1.701768976	-2.8024811931	 0.4507354052	 0.08792
H	-3.5714274951	 0.2182970749	 2.2022471281	 0.14428
H	-1.6993080747	-0.8212442206	-1.0616249157	 0.095565
