21
gdb 59209	3.26367	1.19037	1.08109	1.305	82.51	-0.2229	0.0155	0.2384	1214.4545	0.182991	-387.051789	-387.043352	-387.042408	-387.084807	33.615	
C	 0.0221239578	 1.5080085919	 0.1733165086	-0.401494
C	 0.0579074087	-0.021765007	 0.1454055493	 0.083605
O	 0.7118779585	-0.5441141089	 1.3040865482	-0.431569
C	-1.341646653	-0.6224547223	 0.0203174517	 0.053744
C	-2.0982929014	-0.5761227221	-1.3660179007	-0.094465
C	-1.2445453717	-1.8287434103	-1.7658099362	-0.218943
C	-1.4674746083	-2.1703002606	-0.251586457	-0.079921
C	-2.9956741237	-2.3117217959	-0.2375016393	-0.093589
C	-3.4089090414	-1.2683139143	-0.9640517302	-0.088796
H	 1.0305785129	 1.9065601112	 0.3135082206	 0.122772
H	-0.3871605402	 1.9145007329	-0.7572139781	 0.118108
H	-0.6061360316	 1.8667018295	 0.9983337098	 0.105168
H	 0.6963538784	-0.3426291859	-0.683213925	 0.087364
H	 0.1919188052	-0.2823838387	 2.0725084741	 0.274243
H	-1.9470786879	-0.268484632	 0.8650932564	 0.051208
H	-2.1483116379	 0.3235085172	-1.9798187671	 0.057757
H	-1.6839177969	-2.5113317552	-2.4962999937	 0.093053
H	-0.2082149712	-1.6049592951	-2.0299266742	 0.097644
H	-0.858765156	-2.8967620473	 0.2841728739	 0.068697
H	-3.5643135672	-3.0840686173	 0.2606869861	 0.097771
H	-4.407809123	-0.9498081998	-1.2262609872	 0.097642
