20
gdb 42392	3.76193	0.87622	0.80932	2.6994	80.47	-0.2443	0.006	0.2503	1494.5408	0.170263	-403.133443	-403.12422	-403.123276	-403.169134	33.343	
O	-0.2236459515	-0.087911511	 0.0130959802	-0.335731
C	-0.0652371487	 1.0829152535	 0.2765398807	 0.378766
C	 1.2977646093	 1.7048326271	 0.5556695622	-0.334148
C	 2.4278358457	 0.9611472696	-0.1182112542	 0.055274
C	 2.9178932848	 1.3894363208	-1.4778088317	-0.25534
C	 3.7810884522	 1.6064120157	-0.2574641802	-0.284919
N	-1.1411314542	 1.9564962547	 0.4742157523	-0.082187
C	-1.4815242323	 3.0429265448	-0.4316532419	-0.235441
C	-2.361172829	 1.836956668	-0.2886482751	-0.216871
H	 1.2928776138	 2.7631926344	 0.2718931157	 0.106253
H	 1.4242138219	 1.6912984851	 1.6478999827	 0.135829
H	 2.4102575024	-0.1075284518	 0.0648911001	 0.105781
H	 3.2069603003	 0.6221125605	-2.187029211	 0.115799
H	 2.4614427508	 2.2628898536	-1.9336629595	 0.101977
H	 3.9000838319	 2.623338627	 0.1028771649	 0.107099
H	 4.6626911372	 0.9877032963	-0.1315892369	 0.113256
H	-1.7586886476	 3.9848735291	 0.0338877117	 0.127378
H	-0.9076081566	 3.1360474347	-1.351024077	 0.129939
H	-2.3633549491	 1.1066950595	-1.0930486861	 0.140234
H	-3.2846806111	 1.9090436583	 0.2782372232	 0.127053
