16
gdb 18122	4.45957	1.97034	1.46887	1.8697	66.37	-0.2394	0.003	0.2424	835.4536	0.132638	-383.730092	-383.723647	-383.722703	-383.760811	24.519	
C	-0.0108798271	 1.4996640618	 0.0956990362	-0.11058
O	 1.3051042928	 1.959956995	-0.2446116113	-0.278756
C	 2.0155844824	 0.884841598	-0.8261958677	 0.055495
C	 3.3796962013	 0.4977569686	-0.2364388796	-0.100348
O	 3.4881852229	-0.9001265296	-0.5375825132	-0.274539
C	 2.182317911	-1.5109009156	-0.5308045524	-0.167435
C	 1.2401408485	-0.3542042722	-0.4670856541	 0.285693
C	 0.0817277376	-0.0113311711	 0.0783568629	-0.266208
H	-0.2771956314	 1.887973376	 1.0877083907	 0.11547
H	-0.7508459513	 1.8952771211	-0.6200788376	 0.105413
H	 2.111691822	 1.0278368014	-1.9157247862	 0.083595
H	 4.2409935906	 0.9922753621	-0.6913142619	 0.111332
H	 3.3789452633	 0.6881505485	 0.8473386362	 0.098112
H	 2.0876356674	-2.111680519	-1.4441978416	 0.118638
H	 2.0744070153	-2.183862199	 0.3304055054	 0.115008
H	-0.6709739353	-0.656208516	 0.513864054	 0.10911
