21
gdb 87990	2.59464	1.27805	1.22481	2.3859	79.17	-0.2237	0.0663	0.29	1184.9501	0.179584	-424.196686	-424.18686	-424.185916	-424.231004	36.991	
C	-0.1211936656	 1.4103364527	-0.1783253848	-0.405182
C	 0.1591523843	-0.0741972172	-0.0884139278	-0.094554
C	 1.5895890976	-0.578176786	 0.0805535657	-0.357715
C	 0.6117585626	-0.6682977577	 1.2049677273	 0.443214
O	 0.7488092171	 0.1057987319	 2.3991149046	-0.31574
C	 0.5578184489	-1.0724015682	 3.2154283574	-0.117792
C	 0.1674594402	-1.9163979252	 1.9692482514	 0.244428
C	-1.3125489486	-2.2574492885	 1.8627339953	-0.458264
O	 0.9857607766	-3.0308614255	 1.6856492803	-0.469352
H	 0.5096385596	 1.9672014616	 0.5196942967	 0.133189
H	 0.0686091213	 1.7877431247	-1.1888323633	 0.114189
H	-1.1639650939	 1.6320409234	 0.0735876487	 0.114976
H	-0.4900396478	-0.7029200903	-0.6948790125	 0.082028
H	 1.8863977784	-1.4994303128	-0.4086680746	 0.123094
H	 2.3709701568	 0.1695219571	 0.1761126051	 0.116034
H	 1.4934347087	-1.4094278745	 3.6768290479	 0.103052
H	-0.2100977514	-0.9173452211	 3.9815831695	 0.095674
H	-1.9312255909	-1.3735237098	 2.0400491189	 0.134428
H	-1.5455235756	-2.6504485242	 0.86815035	 0.126835
H	-1.5902803331	-3.0155464597	 2.6064246108	 0.108432
H	 0.5777886849	-3.8128408808	 2.0718273232	 0.279028
