15
gdb 127948	2.63928	1.61148	1.0069	3.7021	74.46	-0.2207	-0.0363	0.1844	1114.6837	0.114236	-450.147933	-450.139909	-450.138965	-450.180717	29.437	
C	-0.0055558474	 1.4107740253	-0.2067264448	-0.343917
N	 0.0127477515	-0.0383213411	-0.2109766739	-0.268734
C	-1.06838294	-0.6524039672	 0.0654052591	 0.28652
N	-2.2890429246	-0.0646223692	 0.3776653218	-0.333798
N	-3.470986404	-0.6844072917	 0.6798103861	-0.217332
C	-3.4395493107	-1.9640818671	 0.6712839121	 0.114399
N	-2.3128354204	-2.7057534823	 0.3827716257	-0.371354
C	-1.0718164977	-2.1611367076	 0.0663191443	 0.405405
O	-0.1170736256	-2.8543078578	-0.1773168955	-0.323916
H	 0.9875146986	 1.7865084344	-0.4620733848	 0.135723
H	-0.7162432487	 1.8247997095	-0.9414608966	 0.114145
H	-0.2739674823	 1.8249221562	 0.7795064351	 0.114236
H	-2.3552065936	 0.9392851786	 0.3948369559	 0.270997
H	-4.3447107116	-2.5104792705	 0.9027184287	 0.149149
H	-2.3510870534	-3.7156977394	 0.3926370168	 0.268477
