18
gdb 78257	2.26434	1.48049	1.2846	4.1994	73.08	-0.2109	-0.0246	0.1863	1078.8167	0.145923	-439.025703	-439.016852	-439.015908	-439.059466	32.706	
C	-0.6327718363	 1.454169326	 0.3764216937	-0.337482
N	-0.1106271873	 0.1180073329	 0.1410220086	-0.087562
C	 0.2776398614	-0.3063602696	-1.192852691	-0.077593
C	 1.6031816388	 0.2266555887	-1.6631470971	 0.096765
O	 2.1041853422	 1.4956140465	-1.3456430072	-0.417565
C	 1.6129982673	-0.8673857061	-0.6479137934	-0.164498
C	 1.1535749766	-0.382701383	 0.7429777	-0.049009
C	 2.0866450449	 0.5599809846	 1.4833849431	 0.140548
O	 2.7042244366	 0.2094883937	 2.4595178341	-0.259841
H	 0.0166754484	 2.2734206668	 0.0370841639	 0.104684
H	-1.594907052	 1.5451643874	-0.1400419298	 0.122564
H	-0.8228370983	 1.5833890758	 1.4473290469	 0.129499
H	-0.4553036415	-0.7466420219	-1.8634957958	 0.095384
H	 1.8813484713	-0.1338285219	-2.6559074217	 0.097671
H	 1.6754938122	 2.1387375258	-1.9207926192	 0.289909
H	 2.090498013	-1.8224718999	-0.8196556744	 0.109541
H	 0.9565168305	-1.2253800339	 1.4154462943	 0.103485
H	 2.185102742	 1.579152738	 1.0674103949	 0.103502
