18
gdb 85327	2.14881	1.94426	1.22036	3.435	71.15	-0.2135	-0.0361	0.1775	1042.983	0.148089	-439.064215	-439.056236	-439.055292	-439.097094	30.004	
C	-0.3491914491	 1.5199427735	 0.4474696419	-0.336908
N	 0.0888837754	 0.2042469273	-0.0168177351	-0.072819
C	-1.0438490207	-0.6835737697	-0.3269350001	-0.304834
C	-1.2986911679	-1.5287557659	 0.9338337637	 0.40459
O	-2.333009304	-2.0425006255	 1.2662172342	-0.300462
C	 0.0428681384	-1.5864318661	 1.6766908013	-0.001464
O	 0.8527032562	-2.6443626854	 1.1053557786	-0.291858
C	 1.7243594867	-1.690686582	 0.4482078738	-0.094696
C	 0.9026494287	-0.4981515657	 0.9807606733	-0.039603
H	 0.5275169378	 2.1361105176	 0.6673023894	 0.126642
H	-0.9147869865	 2.015148945	-0.3467468559	 0.129229
H	-0.9851914315	 1.494378229	 1.351279463	 0.103033
H	-1.9347683525	-0.125948176	-0.6198947528	 0.133648
H	-0.7931792357	-1.3627539289	-1.1532379019	 0.139137
H	-0.0508483097	-1.6567070066	 2.7625955372	 0.093441
H	 2.7512862145	-1.7655566326	 0.8238298513	 0.11003
H	 1.7249113109	-1.79981963	-0.6419098358	 0.114096
H	 1.4466968591	 0.211614492	 1.602491714	 0.088799
