22
gdb 101851	5.12202	0.59439	0.55583	1.9821	79.84	-0.2367	0.0621	0.2988	1991.0274	0.193	-441.443356	-441.433149	-441.432204	-441.47957	37.178	
O	 0.1356955635	 1.362978323	-0.0064721969	-0.425053
C	 0.0518563582	-0.0292140986	 0.2026884985	-0.061251
C	-1.3879268695	-0.5224995376	 0.0379082843	 0.097112
O	-1.8933660637	-0.0525826708	-1.221253548	-0.440094
C	-1.5259259548	-2.0355113141	 0.1876133618	-0.214963
C	-2.9734258841	-2.5210151683	 0.0940461653	-0.141451
N	-3.0328220194	-3.9771416614	 0.1372141672	-0.061144
C	-3.1499079114	-4.581679292	 1.4609180996	-0.22125
C	-4.310437009	-4.5595267452	 0.5283627323	-0.220717
H	-0.4529618998	 1.5415804473	-0.7519159145	 0.28418
H	 0.7028053128	-0.5842648522	-0.4989300707	 0.071034
H	 0.4142925031	-0.2358277326	 1.2158398823	 0.10587
H	-2.0114011794	-0.010322783	 0.7811747457	 0.096178
H	-1.4655674561	-0.5684253205	-1.9159738231	 0.282925
H	-0.9313422525	-2.5402279654	-0.5862902424	 0.101497
H	-1.096815744	-2.3392769321	 1.1509554314	 0.104274
H	-3.5721132474	-2.0574446228	 0.9009549963	 0.078548
H	-3.409228502	-2.1890429464	-0.8539929183	 0.112476
H	-2.5836971752	-5.4949210428	 1.6196625165	 0.116987
H	-3.1957192249	-3.9177465449	 2.3236387181	 0.107631
H	-5.1275547969	-3.881361745	 0.7705778735	 0.110089
H	-4.6071480472	-5.4560623946	-0.0084434892	 0.117124
