16
gdb 123471	5.31557	0.97773	0.86955	4.3511	70.83	-0.2568	0.0004	0.2571	1284.3851	0.125771	-434.035936	-434.028334	-434.02739	-434.06939	27.358	
C	 0.092786241	 1.3554076518	 0.5768984075	-0.183667
C	-0.01435524	-0.0557756322	 0.0512610471	 0.081411
C	-1.305436998	-0.6090776204	-0.371403871	-0.177033
O	-0.3426797107	-0.1773234854	-1.3350996152	-0.230138
N	 1.3468933772	 1.9820400155	 0.1951701555	 0.064884
C	 1.8378658573	 2.2266580448	-1.0442759316	-0.0974
C	 3.0508587925	 2.8268411812	-0.8093584662	-0.063409
N	 3.2406698715	 2.9184758978	 0.5361531494	-0.190405
N	 2.210216447	 2.4067659083	 1.1444024494	-0.147416
H	-0.7446515616	 1.9521985138	 0.2010569268	 0.131781
H	 0.0723421002	 1.3677419151	 1.6693688758	 0.152131
H	 0.7656825362	-0.7379862159	 0.3890833667	 0.118764
H	-1.4698068426	-1.6836310167	-0.3225209339	 0.129078
H	-2.2033898053	 0.0031534914	-0.3002675325	 0.122842
H	 1.3022619808	 1.9494864545	-1.9361384328	 0.162659
H	 3.7829547348	 3.1903943363	-1.5119130549	 0.125917
