14
gdb 10665	2.753	2.13741	1.34336	2.8215	63.32	-0.2826	-0.0499	0.2327	888.6375	0.106091	-378.727723	-378.719775	-378.718831	-378.760274	28.083	
C	 0.2142437062	 1.1355733503	-0.7904571442	-0.503508
C	-0.0818538103	 0.0892737988	 0.2509526976	 0.349726
O	 0.6160507256	-0.1103044722	 1.2196854039	-0.31197
C	-1.3270940546	-0.7667018987	 0.0701485259	 0.06485
C	-1.1034806353	-2.2513724343	 0.2563721338	-0.238474
N	-1.799311952	-1.4878606475	 1.2690039384	-0.316921
C	-2.3404949191	-0.3087528109	-0.8486398438	 0.244071
N	-3.1203153121	 0.0767145499	-1.6101955864	-0.335597
H	 1.1702116109	 1.6105883313	-0.5710761097	 0.152748
H	 0.2307256927	 0.6889283783	-1.7904119168	 0.160069
H	-0.5831082908	 1.8869273436	-0.8006737782	 0.172534
H	-1.716963884	-2.9340299721	-0.3231021456	 0.152947
H	-0.075321718	-2.5537848467	 0.4340209622	 0.147876
H	-1.139476479	-1.2451089	 2.0111942829	 0.261649
