14
gdb 16149	4.24657	1.7442	1.45677	2.328	58.62	-0.2606	-0.0472	0.2134	841.5574	0.106713	-419.662628	-419.655849	-419.654904	-419.693777	24.723	
O	-0.6865907905	 0.8692500196	 0.50778444	-0.252943
C	 0.3181327528	 0.9087366674	-0.1570451976	 0.083744
C	 1.400352341	 1.9069094714	 0.0418516854	 0.287269
C	 1.4638845946	 2.8292735793	 1.2406568892	-0.146605
O	 2.3807387566	 3.8580025612	 0.879986716	-0.254211
C	 2.4135758646	 3.9951054624	-0.5320395702	-0.100573
C	 2.0174914378	 2.6409099344	-1.0860443983	-0.040769
O	 2.6928603327	 1.5509441207	-0.4810376178	-0.274511
H	 0.5231485694	 0.1912734034	-0.9807667148	 0.094927
H	 0.4558191996	 3.2173527065	 1.4457135495	 0.122193
H	 1.8448337571	 2.3431443636	 2.1430885293	 0.131075
H	 1.6993622704	 4.7524553785	-0.8949686676	 0.104405
H	 3.4249180683	 4.3012222278	-0.8180212057	 0.12941
H	 1.7179880256	 2.5175022839	-2.1238716474	 0.116589
