21
gdb 89799	3.03684	1.34961	1.10709	2.0406	81.9	-0.2516	0.0797	0.3313	1174.6086	0.183479	-387.076186	-387.068076	-387.067132	-387.108543	32.644	
C	 0.0654550204	 1.5963312759	-0.0194190462	-0.398273
C	 0.0447357223	 0.0677429241	 0.0301706784	 0.026156
C	 0.6853440761	-0.6164999572	-1.2018947921	-0.341871
C	 1.1770748937	-1.9691937822	-0.69060624	 0.488904
C	 0.7635857282	-3.2502075698	-1.2769788368	-0.263523
O	 2.0708960686	-2.7181272426	-1.5184077992	-0.291832
C	 1.4679141002	-1.8159865676	 0.775373055	-0.125978
C	 2.2855920848	-0.6068189468	 1.1711771282	-0.299994
C	 0.7819173021	-0.5434023973	 1.224971036	-0.036448
H	 1.0930251301	 1.9733246437	-0.0650477714	 0.116145
H	-0.4694501325	 1.9725049947	-0.8980949305	 0.112262
H	-0.4085468636	 2.0273533826	 0.8688280176	 0.111608
H	-1.0010015166	-0.2618882148	 0.0967461135	 0.074106
H	-0.0060199887	-0.710144647	-2.0427822904	 0.103249
H	 1.5452968121	-0.038915387	-1.5611303878	 0.113775
H	 0.7318473249	-4.1476880193	-0.6588983579	 0.108894
H	 0.0954341518	-3.2616459238	-2.1382360816	 0.107757
H	 1.5076839419	-2.7047545202	 1.3944087431	 0.084083
H	 2.811352688	-0.6666235568	 2.1175837835	 0.112481
H	 2.8246555304	-0.0604369257	 0.4043456694	 0.117002
H	 0.3085657756	-0.4823823627	 2.1992194891	 0.081497
