19
gdb 7443	3.04257	1.45104	1.31494	3.9439	67.59	-0.2587	0.0187	0.2775	1043.6346	0.163472	-402.244731	-402.234984	-402.23404	-402.279118	35.238	
C	-0.0735636643	 1.5565107338	-0.0351803849	-0.395677
C	 0.0240717606	 0.0258404024	-0.0428552856	 0.027337
C	 0.7138562098	-0.4846315314	-1.3142999358	-0.392127
C	 0.7783136542	-0.5011125491	 1.2053821517	 0.040598
O	 2.0946502283	-0.0161563572	 1.2452643297	-0.43869
C	 0.0853096993	-0.1056479115	 2.5194883657	 0.383838
N	-1.1478040038	-0.6214777649	 2.7422056733	-0.518606
O	 0.6446387988	 0.6448927869	 3.3039334981	-0.382734
H	 0.9273010111	 1.9959784749	-0.0033164867	 0.133806
H	-0.5764992871	 1.9158416884	-0.9380545804	 0.108475
H	-0.6324792221	 1.9270912019	 0.8300398232	 0.119293
H	-0.992742618	-0.3921840528	-0.0119716333	 0.05446
H	 1.7472069701	-0.128782496	-1.3529002625	 0.141315
H	 0.7337774945	-1.5795372965	-1.3464639406	 0.104572
H	 0.1934733372	-0.1298296912	-2.209513688	 0.107718
H	 0.7975019171	-1.602900927	 1.152131421	 0.077875
H	 2.1332595653	 0.5162940524	 2.0591242057	 0.293576
H	-1.5713653946	-1.2822721422	 2.1150423215	 0.26679
H	-1.6175163964	-0.3991429409	 3.6045434079	 0.268181
