15
gdb 24309	3.0936	2.33637	1.53361	3.814	69.49	-0.2068	-0.035	0.1718	822.1685	0.115806	-416.733579	-416.727541	-416.726597	-416.763862	24.256	
C	-0.1198078832	 1.5179904633	-0.0774937183	-0.191183
C	 1.4261856861	 1.7076188274	 0.0537176101	-0.104503
C	 2.139509507	 2.1275579755	 1.3850122088	-0.099529
O	 2.2420700344	 0.9209313792	 2.2264362855	-0.256172
C	 1.5494537823	-0.0267161687	 1.5464264375	 0.317139
C	 1.3902528501	 0.2189650702	 0.2229770259	-0.033376
N	-0.0018279362	-0.0504238036	-0.0513624156	-0.139991
C	-0.3845560657	-0.7408345853	 1.1127851818	 0.007417
N	 0.5216608112	-0.7930617429	 2.0640897056	-0.263062
H	-0.7062604219	 1.8650971238	 0.7737137113	 0.143385
H	-0.5553831844	 1.8496551031	-1.0189918597	 0.140537
H	 1.8922887773	 2.1646841991	-0.8210745769	 0.093187
H	 3.1547116415	 2.4728790331	 1.1726537933	 0.132271
H	 1.6198686808	 2.8961208196	 1.9689205955	 0.121271
H	-1.3391206494	-1.2503263338	 1.1781476951	 0.132608
