23
gdb 102588	2.13552	1.19759	0.83997	3.4212	81.75	-0.2449	0.0699	0.3148	1452.0021	0.205414	-425.409872	-425.399765	-425.398821	-425.445613	36.822	
C	-0.4529621592	 1.6563187408	-0.5036192431	-0.389555
C	-0.1939538483	 0.1761736293	-0.2029536588	-0.189824
C	 0.7809875318	-0.5087238644	-1.1799419517	-0.024775
C	 2.2440295219	-0.0856236917	-0.9464286057	-0.057205
O	 3.0994725903	-0.4385896366	-2.0123342923	-0.435836
C	 0.6381507823	-2.0248805077	-1.060429829	 0.147073
C	-0.5511950386	-2.7055912113	-1.7766567567	-0.295707
C	 0.528680962	-3.4274974788	-2.6068449371	-0.070628
O	 1.5903852842	-2.7621513997	-1.8869849407	-0.305594
H	 0.4639620288	 2.2512627823	-0.4570987186	 0.126101
H	-0.8797872091	 1.7853343441	-1.504090722	 0.117556
H	-1.157893276	 2.0826570498	 0.2167815319	 0.113924
H	 0.1898828625	 0.0668479276	 0.8206061877	 0.099591
H	-1.1526108475	-0.3589463313	-0.2200043673	 0.096364
H	 0.5248500337	-0.2194407245	-2.2091054152	 0.073197
H	 2.307555197	 1.0030919375	-0.8471205842	 0.099048
H	 2.5881596055	-0.5124718348	 0.0138660132	 0.076863
H	 2.9240072632	-1.3710023136	-2.2015225244	 0.28978
H	 0.7613053445	-2.3230724349	-0.0096044393	 0.078843
H	-1.1706435455	-3.351313948	-1.1532082673	 0.114639
H	-1.1931985495	-2.0247127577	-2.3389585846	 0.114171
H	 0.5804245277	-4.5148541025	-2.4806875156	 0.10965
H	 0.5503573783	-3.191329594	-3.6766837093	 0.112325
