17
gdb 32161	2.91936	1.23629	0.88162	0.735	79.55	-0.2118	-0.0115	0.2003	1268.3445	0.13834	-418.06993	-418.061749	-418.060805	-418.102803	31.353	
N	-0.0803543897	 1.3002510287	-0.3648390959	-0.564608
C	-0.033638534	-0.0650905268	-0.1559354777	 0.391257
C	-1.1958003548	-0.8526633385	-0.2477346931	-0.272253
C	-1.0916131809	-2.2242791095	-0.0834645805	 0.259205
C	-2.3181297073	-3.1115201891	-0.151522676	-0.152286
O	-3.4184899818	-2.5316829087	-0.8273049413	-0.405011
C	 0.1742077675	-2.7710125335	 0.1622425966	-0.230324
C	 1.2563922185	-1.9076430738	 0.2391261661	 0.005818
N	 1.176011748	-0.5824021392	 0.0888729415	-0.341614
H	 0.7375990572	 1.7886936529	-0.0319391915	 0.253796
H	-0.9530681816	 1.7626839503	-0.1650681001	 0.249932
H	-2.1613057517	-0.3999997981	-0.443492551	 0.095907
H	-2.0399041892	-4.0830912211	-0.5883906907	 0.101753
H	-2.6758723284	-3.3169752652	 0.8648371642	 0.133645
H	-3.1454340883	-2.3604474493	-1.7350300509	 0.286064
H	 0.3106045704	-3.8395544191	 0.2887838366	 0.085771
H	 2.2535534862	-2.29852398	 0.4308380637	 0.102947
