15
gdb 47973	5.77267	0.70779	0.7005	3.0202	80.93	-0.2543	-0.072	0.1823	1581.0736	0.110925	-420.527455	-420.519374	-420.51843	-420.561422	28.924	
O	-0.552646454	 0.7322861441	-0.6338972008	-0.225424
C	 0.2339508104	 0.9348889494	 0.2620370944	-0.008233
C	 1.3981808852	 1.77514851	 0.145593751	 0.34544
C	 2.3835313996	 2.4725201874	 0.0839410512	-0.321427
C	 3.5351784446	 3.3073947566	-0.0403828923	 0.330758
C	 4.7937469875	 3.1187822204	-0.941592057	-0.247685
C	 5.0274071429	 4.306514649	 0.0194013253	 0.019153
C	 3.6127928262	 4.843918288	-0.2950464355	-0.247688
O	 4.4487383166	 3.4975006437	 1.1209750085	-0.333382
H	 0.109903778	 0.4750582942	 1.2630072079	 0.108853
H	 5.3726341133	 2.221392729	-0.7248671472	 0.123752
H	 4.6846131041	 3.3223303928	-2.008860015	 0.110676
H	 5.9432783513	 4.8536846904	 0.2323046529	 0.110774
H	 3.4000791332	 5.1987765397	-1.3056075034	 0.11068
H	 3.160038591	 5.4535262654	 0.48647696	 0.123753
