17
gdb 40655	3.2477	1.36423	1.25736	1.1911	66.48	-0.2364	0.0755	0.3119	1033.4819	0.13608	-458.898696	-458.890964	-458.89002	-458.932062	28.211	
C	-0.4437359444	 0.7688997353	-0.5666993494	-0.173592
O	 0.5095759544	 1.2676220868	 0.3671157696	-0.239398
C	 0.4375586609	-0.1487124769	 0.1759759115	 0.050773
C	-0.0202980412	-0.9361262264	 1.3645030826	-0.133805
C	-1.4312554138	-1.4794357875	 1.5601581787	 0.03172
O	-2.2819352721	-1.562338683	 0.4458346135	-0.255178
C	-1.6543312186	-2.3821251528	-0.5298629327	 0.02563
O	-0.5432936213	-3.0289017267	 0.0694637392	-0.258791
C	-0.3096428379	-2.4287787181	 1.3176329611	 0.035357
H	-1.4858363806	 0.8544226867	-0.2695377582	 0.133675
H	-0.2307567707	 0.9872982484	-1.6127656919	 0.112949
H	 1.2984021847	-0.5607533945	-0.3523750977	 0.104322
H	 0.4534513596	-0.621818648	 2.2928732437	 0.111513
H	-1.971153143	-1.353629186	 2.4901974761	 0.11688
H	-2.3680079596	-3.1351116949	-0.8875586612	 0.117751
H	-1.3112532149	-1.7617414248	-1.3702434026	 0.103936
H	 0.1095620784	-3.1187704177	 2.0392107478	 0.116256
