18
gdb 10086	3.08366	1.29819	1.05482	4.0641	64.7	-0.2523	-0.0273	0.225	1136.7487	0.151273	-422.074858	-422.065403	-422.064459	-422.109301	32.969	
O	 0.7195899401	 0.2822435527	 0.7730178065	-0.434964
C	-0.1551490114	 0.4621908174	-0.3262747234	-0.050458
C	-1.4594895173	-0.3473896233	-0.211648436	-0.019421
C	-2.2425637789	-0.3036786473	-1.523862711	-0.092866
O	-2.5292948641	 1.0528458326	-1.8240440232	-0.420247
C	-1.193515716	-1.7964522747	 0.2154341356	-0.29986
C	-1.0172180931	-2.0038617988	 1.7015306555	 0.168363
O	-1.0604985071	-1.1395563139	 2.5430570046	-0.253648
H	 0.1976859361	 0.3618526367	 1.5807718217	 0.292462
H	-0.4034590822	 1.5196590565	-0.4825735656	 0.109903
H	 0.4035445229	 0.1260993716	-1.2105120671	 0.09335
H	-2.0855115457	 0.1207167501	 0.5587570902	 0.101227
H	-1.6478409284	-0.7725997273	-2.326301713	 0.086351
H	-3.1691971971	-0.8911671535	-1.4176898141	 0.086202
H	-2.967811133	 1.0896226723	-2.6788082483	 0.289966
H	-2.0187495554	-2.4620129392	-0.0833181476	 0.118072
H	-0.3013855558	-2.2111912144	-0.2757357085	 0.136862
H	-0.8575378935	-3.0650916772	 1.9959867636	 0.088705
