19
gdb 63592	2.89383	1.34761	1.19457	0.9022	71.33	-0.2339	0.0723	0.3061	1112.3441	0.158032	-460.140771	-460.13196	-460.131016	-460.174512	33.195	
C	-0.255117354	 1.4743965708	 0.1585853007	-0.440763
C	 0.0366223928	-0.0020600975	 0.0948820705	 0.375223
O	-1.103918022	-0.7387803591	-0.2378243723	-0.475703
C	 1.3850133232	-0.5012647539	-0.4166135139	-0.42925
C	 1.0152639114	-0.6802674559	 1.0262833303	 0.307011
C	 1.6994929229	-0.0607717397	 2.2429366603	-0.166782
O	 1.4579958316	-0.9994898354	 3.2922766518	-0.246217
C	 0.4658203423	-1.8773332696	 2.8260104605	 0.01341
O	 0.6587762154	-1.9929303672	 1.4281520984	-0.282788
H	 0.6427988098	 2.0513829116	 0.3967241793	 0.113467
H	-0.6309400096	 1.8211458368	-0.8094926036	 0.133072
H	-1.019316883	 1.6871679679	 0.9130242112	 0.124182
H	-1.0023610463	-1.604344365	 0.181728064	 0.288645
H	 1.3782631513	-1.3938333942	-1.0336774236	 0.126917
H	 2.1595261814	 0.2207603402	-0.658145533	 0.115115
H	 2.7828307248	 0.0364179079	 2.1157605597	 0.118687
H	 1.2827789755	 0.9224530253	 2.496495991	 0.110657
H	 0.6013733955	-2.8592639784	 3.2863730972	 0.125036
H	-0.5438838329	-1.4837453646	 3.0398860514	 0.090081
