17
gdb 48274	2.5174	1.04835	0.82083	2.6948	76.	-0.2554	-0.0394	0.216	1404.2327	0.131738	-421.761699	-421.752105	-421.751161	-421.797517	33.776	
O	-1.016033393	 0.4306061308	-0.6887501187	-0.233246
C	 0.1507583095	 0.5533963003	-0.9320670318	 0.156557
C	 1.1486130938	 1.2780922068	-0.0117535781	-0.123423
O	 2.3545101231	 0.5379880376	-0.1132119328	-0.254405
C	 3.3544867986	 0.9468432558	 0.7792634342	 0.140636
C	 3.323069921	 0.4276064706	 2.1931169901	-0.289002
C	 4.3283755963	-0.1057020289	 1.1899867373	-0.286634
C	 1.2859785433	 2.6657637004	-0.4616469006	 0.327222
C	 1.3859009589	 3.7921084611	-0.8697485777	-0.471013
H	 0.6292278711	 0.1539845957	-1.8505619462	 0.105243
H	 0.7494241711	 1.2537411087	 1.011835073	 0.121156
H	 3.7133310482	 1.9592425919	 0.6064824894	 0.103421
H	 3.6677679601	 1.0743436399	 2.9921829281	 0.119456
H	 2.5033032952	-0.2303221772	 2.4596359105	 0.12404
H	 4.1542395041	-1.1026410016	 0.8020655385	 0.12955
H	 5.3718333838	 0.169587035	 1.29100327	 0.119816
H	 1.473245045	 4.7922939628	-1.2174931753	 0.210625
