16
gdb 128038	6.35947	0.75753	0.69756	2.3235	76.51	-0.2311	0.008	0.239	1577.5912	0.125039	-434.069113	-434.060741	-434.059797	-434.103157	29.819	
C	 0.1225267729	 1.3727528292	 0.1978742035	-0.315596
N	-0.2939672469	 0.0486709942	-0.2151298133	-0.199232
C	 0.519993803	-0.6302724335	-0.8849965736	 0.105344
O	 0.1946799109	-1.8960570524	-1.2677408551	-0.234778
C	 1.0305126895	-2.5158906978	-2.1556776997	 0.251426
C	 1.4213080442	-3.8365006416	-2.0775292208	-0.130678
N	 2.1840206794	-4.0478618803	-3.1787898819	-0.172313
N	 2.3200535306	-2.9635156473	-3.958096733	-0.213283
C	 1.6111390101	-2.0185512426	-3.3438198763	-0.095673
H	 1.130686306	 1.6550973835	-0.1460314381	 0.099568
H	-0.5916595485	 2.1133455011	-0.1787617738	 0.131596
H	 0.1012494566	 1.4380080034	 1.291492991	 0.131675
H	 1.5235048875	-0.3154730216	-1.2033187881	 0.091664
H	 1.2095062179	-4.6023884087	-1.3505026952	 0.147737
H	 2.6323548609	-4.9042544052	-3.4562188983	 0.28145
H	 1.5339989659	-1.0303303806	-3.7710554373	 0.121095
