17
gdb 1512	8.41075	1.18516	1.0677	3.4827	62.09	-0.2436	-0.0086	0.235	1119.7258	0.145021	-346.861026	-346.852067	-346.851122	-346.895676	29.599	
C	-0.0177873176	 1.5033892305	 0.1318592507	-0.375852
C	-0.0303020884	-0.0036970501	-0.1138892709	-0.285233
C	 0.7219141187	-0.4130007364	-1.375477104	 0.354957
O	 1.1267781935	 0.3845571228	-2.1831603396	-0.276469
C	 0.9260340286	-1.9181924558	-1.5411704711	-0.149025
O	 1.4953836907	-2.2019505122	-2.7815655271	-0.209369
C	 1.7286812301	-3.5771891393	-2.974780681	-0.225484
H	 1.0029984556	 1.8677524026	 0.2755111283	 0.129236
H	-0.434854754	 2.0373374675	-0.7249255179	 0.137669
H	-0.6025137446	 1.7556492912	 1.0206630769	 0.109991
H	 0.3875980141	-0.553370969	 0.740321112	 0.115786
H	-1.0609483151	-0.3733772748	-0.214663044	 0.125667
H	 1.564891726	-2.2666596376	-0.7069502553	 0.104517
H	-0.0475885293	-2.4259571471	-1.4075368642	 0.100751
H	 2.4232536685	-3.9844179951	-2.2226785995	 0.104479
H	 0.7958486892	-4.1619393819	-2.9313098192	 0.103952
H	 2.172779774	-3.6932927753	-3.9658800942	 0.134427
