18
gdb 1121	4.79558	1.49909	1.38222	3.3356	64.34	-0.2438	0.0346	0.2784	953.6413	0.158321	-327.026688	-327.017676	-327.016732	-327.060725	31.641	
C	 0.0436429132	 1.5084406477	-0.035056946	-0.398849
C	 0.0712834769	-0.0114331169	 0.1645114875	 0.065504
C	 0.6510481389	-0.3836116862	 1.5354801017	-0.389198
C	-1.3286955543	-0.6113462346	-0.0331820098	-0.304466
C	-1.3186740343	-2.135849078	-0.1456741515	 0.407827
N	-2.485939377	-2.745913009	 0.2187763256	-0.521514
O	-0.3572793626	-2.7668206164	-0.5423628339	-0.361837
H	 1.0457177818	 1.935686061	 0.0742543457	 0.112599
H	-0.328203285	 1.7769319071	-1.029918153	 0.107659
H	-0.6041335871	 1.9947192422	 0.7048553159	 0.107122
H	 0.712593215	-0.458770031	-0.603130621	 0.101504
H	 0.0334408441	 0.0201384601	 2.3478321797	 0.101336
H	 0.7114288973	-1.4685233265	 1.6553466745	 0.132472
H	 1.660372374	 0.0232695055	 1.6556397665	 0.110093
H	-2.0023221523	-0.2946119631	 0.7741698938	 0.094733
H	-1.7665966379	-0.2295524486	-0.9659913916	 0.120648
H	-3.3052615804	-2.2247061413	 0.4760313338	 0.255869
H	-2.5705083902	-3.738062532	 0.068901772	 0.258496
