21
gdb 76821	2.6902	1.5181	1.22537	1.5094	84.53	-0.2245	0.012	0.2365	1117.6249	0.182759	-387.068642	-387.060019	-387.059075	-387.101527	33.35	
C	-0.0501505446	 1.5540942843	 0.1157218586	-0.387184
C	-0.032558361	 0.0365233917	 0.0207603849	-0.062568
C	 0.7969244746	-0.5746292461	-1.2001289497	-0.069676
C	 1.0092598976	 0.215628833	-2.4819106553	-0.409914
C	 1.9229339678	-0.6921887177	-0.1957221556	 0.21613
C	 3.1034965952	-0.17308719	 0.1224928434	-0.246547
C	 3.0880198353	 0.1089810971	 1.6187957201	-0.105662
O	 1.703608548	 0.0225503437	 2.0127563967	-0.278896
C	 1.0125838678	-0.6609372815	 0.9851570857	 0.088437
H	 0.9603625786	 1.9706676672	 0.0697834434	 0.121536
H	-0.6392579195	 1.9963455756	-0.6940087901	 0.110259
H	-0.4893604871	 1.8683519601	 1.0670639021	 0.124649
H	-1.046312075	-0.367144295	 0.1014106111	 0.067971
H	 0.3733023762	-1.5578016139	-1.4364321751	 0.084845
H	 1.4219355411	 1.20768924	-2.278274771	 0.121992
H	 1.7062894555	-0.306389138	-3.1461063953	 0.120038
H	 0.0670384124	 0.3427379468	-3.0255246011	 0.117292
H	 3.9025617655	 0.1532234949	-0.5310636726	 0.100557
H	 3.6883854882	-0.6003907338	 2.2112485919	 0.102341
H	 3.4557498323	 1.118586804	 1.8441982816	 0.109485
H	 0.6311136412	-1.6240351523	 1.3515322263	 0.074914
