15
gdb 80091	2.50628	1.82991	1.44759	2.393	66.75	-0.2443	-0.0208	0.2235	920.3321	0.114594	-453.97365	-453.966221	-453.965277	-454.005613	28.195	
O	-0.0430422619	 1.436784674	-0.0536257678	-0.414543
C	-0.0457920074	 0.0496540419	-0.003071064	 0.091794
C	-0.4994981501	-0.6564327099	 1.2472843903	-0.069084
N	-0.8895326237	 0.1379514981	 2.3611232314	-0.249133
C	-1.9364568383	 0.8559116895	 2.2406731958	 0.082262
N	-2.7844409234	 0.8882722035	 1.1507004293	-0.32809
C	-2.6488875883	 0.0776482197	 0.0242148043	 0.450934
O	-3.5353186791	-0.0029394235	-0.797289645	-0.362726
C	-1.3759389132	-0.6815229554	-0.0280866017	-0.238284
H	 0.3354096708	 1.7627491307	 0.7718340804	 0.29947
H	 0.7503980362	-0.4274633638	-0.5717440925	 0.111579
H	 0.0242048015	-1.5663926106	 1.5202657659	 0.111482
H	-2.2410276155	 1.5009625843	 3.0631434303	 0.130527
H	-3.6502176809	 1.405479658	 1.2055375946	 0.262932
H	-1.4360588667	-1.5798009666	-0.6303245611	 0.12088
