24
gdb 9421	3.76117	0.83774	0.71955	1.0314	83.09	-0.2475	0.0865	0.334	1682.3476	0.22094	-351.411601	-351.400711	-351.399767	-351.448161	38.209	
C	 0.087771962	 1.5766898803	 0.0107411172	-0.378784
C	 0.0321376993	 0.0467348214	 0.0331091251	-0.164231
C	-1.397130364	-0.5033711784	-0.0132432334	-0.162182
C	-1.4582037497	-2.0335389655	 0.0060622401	-0.187857
C	-2.8814308583	-2.5941869614	-0.0049191999	 0.139026
C	-2.8957044067	-4.1224559832	-0.1056462339	-0.402041
O	-3.5110346532	-2.1411945238	 1.190218596	-0.24284
C	-4.917055029	-2.182538659	 1.1734396853	-0.232871
H	 1.1191235753	 1.9417219432	 0.0475351243	 0.108323
H	-0.3743254554	 1.9762773287	-0.8990694632	 0.111035
H	-0.4478175595	 2.0036947676	 0.8659433599	 0.113707
H	 0.6050860721	-0.3528546355	-0.814704562	 0.08947
H	 0.5330763278	-0.3246697447	 0.9370592766	 0.093918
H	-1.9710721484	-0.1171679893	 0.8364059987	 0.109875
H	-1.8987245377	-0.1311802033	-0.9182411157	 0.082976
H	-0.9185368717	-2.4404458977	-0.8586871861	 0.08818
H	-0.9489923666	-2.4143099063	 0.9013967969	 0.099638
H	-3.4229772503	-2.1731878599	-0.8710299023	 0.057615
H	-3.9150273207	-4.5192229092	-0.1093422563	 0.113244
H	-2.4102060591	-4.4502900927	-1.030398379	 0.113047
H	-2.3604505108	-4.5627154913	 0.7417774326	 0.121552
H	-5.2642782781	-1.7254498784	 2.1039295247	 0.124292
H	-5.33146686	-1.614113177	 0.3254197861	 0.101068
H	-5.3140365276	-3.2072963346	 1.1238033684	 0.103838
