17
gdb 56617	1.89287	1.44561	0.88238	1.7221	75.73	-0.2594	-0.06	0.1993	1284.5448	0.130942	-421.807708	-421.797583	-421.796639	-421.843575	35.167	
C	-0.1681503701	 1.6977658335	-0.3209476731	-0.405471
C	-0.0307591839	 0.1706787571	-0.1476609542	-0.17759
C	-1.3240742934	-0.4302014449	 0.181327498	 0.28957
C	-2.3981292918	-0.9137051932	 0.4233267405	-0.437018
C	 0.5668174271	-0.4982270033	-1.4044280815	-0.163795
C	 2.0408773253	-0.1580811914	-1.6309924334	 0.133424
O	 2.7136488839	 0.4870652624	-0.8713004158	-0.230431
C	 0.4869356177	-2.0300467243	-1.393290557	 0.140698
O	 0.6760487429	-2.6996971095	-2.3740012657	-0.250253
H	 0.8091026987	 2.147350468	-0.5038914963	 0.144621
H	-0.8349495363	 1.9307807428	-1.156809756	 0.124672
H	-0.5938204305	 2.1417011665	 0.5820045497	 0.132589
H	 0.6649560585	-0.0114328708	 0.6815885146	 0.1287
H	-3.3426550711	-1.3419880759	 0.6525087345	 0.202157
H	 0.0325121569	-0.1822096256	-2.3105849887	 0.13489
H	 2.4552846939	-0.591473134	-2.5642931138	 0.120781
H	 0.2802415924	-2.4825569675	-0.4020507718	 0.112455
