18
gdb 10738	2.49328	1.90395	1.57114	3.3287	71.16	-0.2553	0.0272	0.2826	931.6938	0.15314	-343.978179	-343.969439	-343.968494	-344.011034	32.066	
C	-0.1031103047	 1.4827459613	-0.1322351041	-0.403296
C	 0.020341951	-0.0484454341	 0.0500550293	 0.060683
C	 0.7682752592	-0.3776737105	 1.3615848965	-0.402779
C	-1.3327011018	-0.6242517357	 0.1070897753	 0.266346
N	-2.3965899034	-1.0767480972	 0.1318454379	-0.354294
C	 0.7853411961	-0.6452054512	-1.1391178268	 0.023099
C	 0.5972056262	-2.0406205589	-1.5992531594	-0.259627
N	 0.1534860346	-0.905568752	-2.4342905141	-0.331417
H	 0.8970764359	 1.9246765163	-0.1684814443	 0.126743
H	-0.6210161848	 1.7270423382	-1.0627942786	 0.141635
H	-0.650448655	 1.9329927298	 0.6999491838	 0.133911
H	 0.2622709564	 0.0667251087	 2.2226386712	 0.13446
H	 0.8353069244	-1.4572499415	 1.5149251119	 0.138718
H	 1.7829699199	 0.0288238064	 1.3116165593	 0.12674
H	 1.77798898	-0.2049194573	-1.2253904958	 0.09851
H	 1.441112137	-2.599795301	-1.9921930617	 0.122404
H	-0.1639214231	-2.6412804083	-1.1088871849	 0.134723
H	-0.8583429879	-0.8122139231	-2.3579545554	 0.24344
