17
gdb 57990	3.21527	0.91147	0.84507	2.5458	70.76	-0.269	-0.002	0.2669	1411.3386	0.132218	-458.956534	-458.946458	-458.945514	-458.99299	35.312	
C	 0.5234520369	 1.3178011602	 0.4225131187	-0.394097
C	-0.0725834872	 0.0105960301	-0.1191037832	 0.043374
O	-1.4099094845	 0.1867059443	-0.515064694	-0.437324
C	 0.7359323953	-0.5074067235	-1.3022095945	 0.430452
O	 0.2856603429	-0.5911416319	-2.4198246083	-0.373161
O	 1.9850463638	-0.853702469	-0.9506475735	-0.234245
C	 2.8460197874	-1.3147208806	-2.0184751709	-0.225312
C	 3.5603674808	-0.2160036728	-2.6503742102	 0.325355
C	 4.1637763609	 0.6817893359	-3.1714355505	-0.452836
H	 1.5437124908	 1.1645785103	 0.7827335764	 0.128725
H	 0.5311929368	 2.083975954	-0.3585156175	 0.127873
H	-0.0977805047	 1.6750979461	 1.2471348521	 0.133088
H	-0.0213582557	-0.7546541491	 0.6697462766	 0.103284
H	-1.4276714868	 0.0386150419	-1.4719277463	 0.295088
H	 3.5415370444	-2.0069084608	-1.5376208342	 0.150688
H	 2.2433430393	-1.8562534392	-2.7522339331	 0.166883
H	 4.6912704797	 1.4763553641	-3.6392755178	 0.212165
