17
gdb 48287	2.54238	0.87162	0.67734	2.0598	81.82	-0.2583	-0.0387	0.2197	1597.1593	0.131266	-384.628763	-384.618523	-384.617579	-384.665196	35.837	
O	-0.0553364543	 0.0066898993	-0.1916121735	-0.243695
C	 0.0149644162	 1.164025643	 0.1227259825	 0.166866
C	 1.3057644778	 1.9886479556	 0.0693682224	-0.259047
C	 1.3126409745	 2.8383274335	-1.2335013914	-0.198995
C	 1.4630436527	 1.9768132439	-2.5034744951	-0.367808
C	 1.4480580489	 2.784853912	-3.7159513626	 0.283759
C	 1.4315475349	 3.4759017781	-4.6990175717	-0.426371
C	 1.3976586947	 2.8302594025	 1.2552482008	 0.27762
C	 1.425306935	 3.5246927563	 2.2359474413	-0.410533
H	-0.8764032342	 1.742159948	 0.4517170812	 0.097898
H	 2.1394890443	 1.2771843991	 0.0374806315	 0.127136
H	 0.3913665321	 3.4283681594	-1.2883955525	 0.127467
H	 2.1371663559	 3.5535350199	-1.1731108462	 0.134773
H	 2.4023745649	 1.4113581095	-2.4490274631	 0.137716
H	 0.6648296711	 1.2264236133	-2.5483452552	 0.152171
H	 1.4182012656	 4.0736658188	-5.5764260073	 0.197174
H	 1.4713652901	 4.134847208	 3.1041987888	 0.20387
