16
gdb 21232	3.18016	1.98183	1.30314	2.7976	66.92	-0.2193	0.0329	0.2523	933.3351	0.131088	-379.93198	-379.92377	-379.922825	-379.965427	28.594	
C	 0.3660076256	 0.8223924752	-0.455168627	-0.253393
O	-0.4330797193	 0.4030497797	 0.6533172636	-0.268327
C	-1.4076523259	-0.4879460422	 0.359254796	 0.349296
C	-1.3815767804	-1.81241734	-0.0409609081	 0.090461
C	-0.1848026092	-2.6691379933	-0.3177134686	-0.518128
C	-2.7535038336	-2.1573125954	-0.09442421	-0.068662
N	-3.558100001	-1.1545089277	 0.245683911	-0.236175
N	-2.7111692919	-0.1369425085	 0.5065343154	-0.250322
H	 1.0867007395	 1.5402440629	-0.0594380982	 0.137454
H	 0.9021746179	-0.020641142	-0.9039626474	 0.131433
H	-0.250944571	 1.3054627104	-1.2222899586	 0.124565
H	-0.3969166131	-3.7182061821	-0.0905274956	 0.12959
H	 0.1322166392	-2.6256065467	-1.3674491858	 0.124984
H	 0.6692869568	-2.365878842	 0.296244893	 0.129099
H	-3.1798276438	-3.115287034	-0.3592070615	 0.105568
H	-3.0623978199	 0.7478290256	 0.8324363616	 0.272557
