16
gdb 46850	2.70732	1.81827	1.18249	5.4025	71.03	-0.2464	-0.0384	0.2079	1002.6661	0.127409	-434.076196	-434.068886	-434.067941	-434.108039	28.211	
N	 0.0491212335	 0.5832106414	-1.2740862868	-0.481011
C	 0.0847060463	-0.1599710023	-0.2463625469	 0.225403
N	-1.0750242603	-0.6787008311	 0.3422588714	-0.077012
C	-1.8687094708	-1.7288458343	-0.2788831423	-0.246564
C	-1.0208875351	-2.010949036	 0.9230783816	-0.012631
C	 0.3186846887	-2.7140025562	 0.7942654838	-0.208638
N	 1.3714194191	-1.7379387171	 1.0807993353	-0.327974
C	 1.3943960821	-0.5212033056	 0.4547032013	 0.361701
O	 2.3684929713	 0.2029011137	 0.411041677	-0.365408
H	 1.0006741299	 0.9072193067	-1.4647713646	 0.24264
H	-2.944451279	-1.6290161369	-0.1720038098	 0.134799
H	-1.5321690741	-2.1038196849	-1.2421731139	 0.134286
H	-1.5007805304	-2.0893070379	 1.8960674541	 0.111182
H	 0.3962441536	-3.532701034	 1.5132129031	 0.13051
H	 0.4400693442	-3.1454999691	-0.209006486	 0.123501
H	 2.267748171	-2.0629144166	 1.4152758226	 0.255215
