15
gdb 133539	2.55809	1.39035	1.28559	1.3164	53.63	-0.2335	0.0694	0.3029	1009.6161	0.108673	-585.422345	-585.413909	-585.412965	-585.456035	30.867	
O	-0.0650549713	 1.4473677256	-0.096160234	-0.476425
C	-0.0220210558	 0.0517334732	 0.0330106136	 0.270572
C	 0.1762100355	-0.5099118332	 1.4726364905	-0.232327
N	-1.2683081833	-0.8414695796	 1.528819035	-0.312042
C	-1.439203836	-0.5619905236	 0.0820369426	-0.210511
C	 0.90758256	-0.5255470731	-1.0268696787	 0.226644
F	 2.1366346385	 0.0203039054	-0.9107128583	-0.096039
F	 1.0432359765	-1.8548162813	-0.90621273	-0.075783
F	 0.4684677506	-0.2721279698	-2.2624898682	-0.067045
H	 0.8364250006	 1.7833495107	-0.0235276577	 0.288742
H	 0.857625447	-1.3661756216	 1.5189380481	 0.109575
H	 0.4857749987	 0.2417376502	 2.2064115025	 0.110731
H	-1.4653713836	-1.7981804326	 1.7953657652	 0.225192
H	-2.2332186142	 0.155350229	-0.144117945	 0.126805
H	-1.5523146533	-1.4432752993	-0.5594893657	 0.11191
