16
gdb 66522	5.05555	1.36332	1.33069	4.2017	71.51	-0.2389	-0.0106	0.2283	975.8582	0.124805	-400.676631	-400.669804	-400.66886	-400.707698	27.158	
C	 0.1038479924	 1.5435668224	-0.0591813207	-0.530729
C	-0.0222036524	 0.0583096515	-0.003862813	 0.330853
C	 0.3842686902	-1.0526697859	-0.9560561179	-0.138733
C	 0.8716608624	-1.0226238669	 0.5227955714	-0.099381
N	-0.1880473796	-1.775173351	 1.2627177789	-0.211231
C	-1.1651219821	-0.899995715	 0.4420573843	-0.069342
C	-0.9032886359	-1.88363512	-0.7563031824	-0.212935
C	-0.4972626314	-2.8924171023	 0.321939913	 0.440074
O	-0.4934049866	-4.0668919921	 0.4879409528	-0.301795
H	 1.1014187935	 1.8318208082	-0.4074656654	 0.130436
H	-0.6271819886	 1.9822026002	-0.747536525	 0.127726
H	-0.0472428423	 1.9924832874	 0.9287613055	 0.133607
H	 1.0575554433	-1.0345649209	-1.8016764581	 0.103652
H	 1.9103807575	-1.0188707307	 0.8245327087	 0.105938
H	-2.1352658774	-0.6734776553	 0.8767803991	 0.097314
H	-1.568515813	-2.0958888197	-1.5890165613	 0.094547
