22
gdb 122555	5.13512	0.70347	0.67955	1.7379	83.1	-0.2321	0.0754	0.3075	1756.2536	0.193715	-404.29484	-404.28539	-404.284446	-404.330157	34.582	
C	 0.1546744802	 1.4208466185	 0.1945416602	-0.382929
C	-0.1555527996	-0.0371737428	-0.1525768847	-0.182377
C	 0.7571541403	-0.5833774628	-1.2414275889	-0.041976
O	 0.408202313	-1.9325169512	-1.4938389541	-0.259611
C	 1.1799683564	-2.5343242176	-2.4986602191	 0.1329
C	 2.6203559016	-3.0349941947	-2.1718300071	-0.203522
N	 2.2674918118	-4.4460865066	-2.5647152888	-0.128989
C	 1.1983765376	-4.8450954409	-1.6353224347	-0.229617
C	 0.8275161827	-3.984040212	-2.7745636662	-0.06663
H	 1.1815738539	 1.5354397564	 0.5588572338	 0.116564
H	 0.0382190041	 2.0734402762	-0.6778183596	 0.116797
H	-0.5165266363	 1.7894824134	 0.9754046258	 0.118483
H	-0.0527630122	-0.670045143	 0.7363700337	 0.106423
H	-1.1942961388	-0.1367782003	-0.4876538275	 0.107945
H	 0.655539553	 0.013774889	-2.1644297086	 0.084696
H	 1.8122115589	-0.5102860256	-0.9272519473	 0.087019
H	 1.1688472515	-1.9203552644	-3.410738688	 0.073106
H	 3.3945199104	-2.638991425	-2.8318052496	 0.110144
H	 2.9389655438	-2.935725053	-1.1287602971	 0.10539
H	 0.9433023749	-5.8975655212	-1.7102930778	 0.12069
H	 1.1879361983	-4.438406374	-0.627052318	 0.120896
H	 0.2277599646	-4.3380208683	-3.6061711965	 0.094596
