15
gdb 73939	3.11589	1.30419	0.92996	2.518	76.46	-0.2664	-0.0725	0.194	1174.2142	0.113074	-416.883918	-416.875356	-416.874412	-416.917529	30.263	
C	 0.0448920631	 1.5264453191	 0.0245399054	-0.505809
C	-0.0208702179	 0.0427837525	 0.0180452232	 0.081035
C	-1.0774548714	-0.7854503123	-0.073397559	 0.095083
C	-0.6339764038	-2.2346515468	-0.0359978273	-0.259302
N	 0.7956350863	-2.0972779833	 0.0871594963	-0.357566
C	 1.2249145614	-0.7919461057	 0.1248705835	 0.410591
O	 2.3654157462	-0.3948711086	 0.2233123291	-0.373279
C	-2.441567535	-0.4200406485	-0.1906688971	 0.220747
N	-3.5604100033	-0.1344186475	-0.2868559625	-0.333767
H	 0.6758740696	 1.8768565472	-0.7995250615	 0.159279
H	-0.9442936455	 1.9801082501	-0.060539088	 0.147119
H	 0.5253833182	 1.8758900769	 0.9448805167	 0.159278
H	-1.0815728975	-2.7666900008	 0.8144295313	 0.14574
H	-0.9295746906	-2.765745776	-0.9509805914	 0.14574
H	 1.4366656002	-2.8705512163	 0.1420210711	 0.265113
