17
gdb 71470	4.13054	1.2461	1.12557	5.1254	78.19	-0.2671	0.0049	0.272	1103.16	0.136654	-380.837583	-380.829945	-380.829001	-380.869443	29.756	
C	 0.0618745683	 1.5393217347	 0.0832970445	-0.496674
C	 0.0233152514	 0.0422560584	 0.0233070467	 0.332575
C	-1.2762393044	-0.7670804658	 0.2552954788	-0.284202
C	-0.3471943686	-1.7991771691	 0.8585220823	-0.069296
N	 0.7217560278	-0.8023646663	 1.1632780115	-0.203523
C	 0.9237943212	-1.8098199101	 0.0504383476	 0.217256
C	 0.8122789547	-0.7556293658	-1.038384388	-0.334852
C	 1.8788954356	-2.8702862648	 0.1354283249	 0.191901
N	 2.6452543956	-3.7362510515	 0.1690073443	-0.341956
H	 1.0930477374	 1.9049109322	 0.0657741095	 0.135203
H	-0.4680560519	 1.9680927437	-0.7751349314	 0.129128
H	-0.415499158	 1.9064526067	 0.9969256042	 0.133414
H	-1.8952581052	-0.3080698526	 1.030656853	 0.121587
H	-1.8921668085	-1.0284910068	-0.6103752618	 0.109168
H	-0.5727180629	-2.6061441535	 1.5458534771	 0.118474
H	 0.3152554733	-1.0138821374	-1.9778241253	 0.113025
H	 1.7865031641	-0.3032671118	-1.2375640479	 0.128773
