17
gdb 3473	4.35733	2.87744	2.5795	0.4827	67.72	-0.2333	0.1046	0.3379	641.0551	0.149997	-272.53819	-272.532181	-272.531237	-272.567531	24.165	
C	-0.0721732346	 1.55308658	-0.0462156107	-0.530375
C	 0.0104669741	 0.0641742217	 0.0088258167	 0.365637
C	 0.0340435068	-1.0097189108	-1.0550354968	-0.107576
C	 1.2989798549	-1.6398967931	-0.480190296	-0.223446
C	 0.9080592903	-0.947726498	 0.853830618	-0.104275
C	-0.3973387813	-1.6685254752	 1.287319473	-0.223445
C	-1.033942383	-1.0278092399	 0.0577397107	-0.107577
H	 0.8813393442	 2.0019946152	-0.3495560047	 0.11853
H	-0.8309607414	 1.8711490568	-0.7700633978	 0.120623
H	-0.3443171102	 1.9811493528	 0.9261124868	 0.118528
H	-0.2568823807	-0.9129826002	-2.0940877536	 0.077163
H	 1.3963927041	-2.7324315535	-0.4711842721	 0.083279
H	 2.1976536184	-1.1971390009	-0.91954464	 0.094089
H	 1.6669000852	-0.6784015785	 1.5864696491	 0.064316
H	-0.3666328409	-2.7621815211	 1.3658886544	 0.083273
H	-0.806403852	-1.2478109652	 2.2105471467	 0.094092
H	-2.0855266239	-0.9439662501	-0.1887665637	 0.077163
