16
gdb 22337	2.9195	1.30387	1.02128	4.1377	70.03	-0.2552	-0.0572	0.1981	1164.1443	0.123634	-475.023737	-475.015355	-475.014411	-475.057234	30.868	
C	 0.2675629929	 1.4845018719	 0.0166907883	-0.392363
C	-0.0205065623	-0.0090431866	-0.0499290102	 0.112076
C	 0.614882669	-0.7191376938	-1.2662815955	-0.327829
C	 1.8534039437	-1.3232809994	-0.6683089883	 0.227963
N	 2.8432854136	-1.7004156498	-1.3797523623	-0.200601
O	 3.8886181992	-2.2327379267	-0.6557856035	-0.346582
C	 1.6758381156	-1.3599825762	 0.8255297224	 0.403328
O	 2.3391284928	-1.8917149783	 1.6663581999	-0.324962
O	 0.5454645864	-0.6564430728	 1.1161706169	-0.23673
H	 1.3422611122	 1.6774410399	-0.0672627168	 0.130772
H	-0.2415868886	 2.0040408016	-0.8012427668	 0.124167
H	-0.0842409486	 1.8983691112	 0.9649913433	 0.139478
H	-1.0974390536	-0.1871941844	 0.0024329512	 0.102647
H	-0.0481930333	-1.5052607646	-1.6445249957	 0.135936
H	 0.828816818	-0.0366723174	-2.0907838168	 0.135922
H	 4.530013943	-2.4433436144	-1.344674466	 0.316778
