14
gdb 14468	4.04301	2.20555	2.17697	1.9688	54.49	-0.2313	0.0636	0.2949	682.4552	0.108784	-419.64804	-419.642397	-419.641453	-419.677441	23.362	
O	-0.0690820857	 1.3690738502	 0.0744754025	-0.463167
C	 0.0580928	-0.0064653672	 0.0599553799	 0.288371
C	 1.0682012102	-0.8067849364	 0.8785292054	-0.308805
C	 0.510790734	-2.1675507247	 0.4124431797	 0.153097
O	-0.8748051494	-2.0845817811	 0.737226517	-0.246358
C	-1.1696415624	-0.898839313	 0.0234731637	 0.004457
C	-0.2135289667	-0.8955901466	-1.1555877928	-0.041622
O	 0.5555454119	-2.0761058563	-1.0119058414	-0.249023
H	 0.6655800995	 1.7476917082	-0.4219691815	 0.289961
H	 2.1048706554	-0.6580602952	 0.5667920732	 0.107666
H	 0.9604701338	-0.6590357885	 1.9546542407	 0.121036
H	 0.9459980347	-3.0992418287	 0.7623635965	 0.103793
H	-2.1990976603	-0.5740754454	 0.0312486918	 0.122918
H	-0.4246852851	-0.5789394454	-2.1661937446	 0.117676
