20
gdb 72283	3.09153	1.62304	1.33955	0.5369	78.32	-0.2003	0.0808	0.2811	1028.302	0.173067	-403.097211	-403.089628	-403.088683	-403.128873	30.532	
C	-0.1114779194	 1.6005810677	 0.0236896718	-0.500726
C	-0.0023609729	 0.1045374109	-0.0359775802	 0.258401
C	 0.6368761544	-0.6748625984	-1.1822736214	-0.243274
N	-0.3631307432	-1.7856442806	-1.0230596097	-0.111067
C	 0.1560592864	-3.0230717925	-0.4297595597	-0.180252
C	 1.0981220808	-2.7797617518	 0.7585115415	-0.074285
O	 0.624027289	-1.7949776663	 1.6746309171	-0.271797
C	-0.2183889818	-0.7975861837	 1.1684890494	 0.081158
C	-1.0946162423	-0.9900252091	-0.0145478748	-0.129935
H	 0.8605151421	 2.0590297953	 0.2426625109	 0.124127
H	-0.4652979319	 2.0110958364	-0.9294682891	 0.119303
H	-0.809063651	 1.922426951	 0.8036110073	 0.120631
H	 0.4896700541	-0.1854525057	-2.1517815019	 0.104589
H	 1.6926932121	-0.9487667404	-1.0903369303	 0.101488
H	-0.7130376207	-3.6109408483	-0.1128454553	 0.111212
H	 0.6873091008	-3.6073685973	-1.1903443491	 0.102494
H	 1.225835027	-3.7016178803	 1.3360067269	 0.104339
H	 2.0942936414	-2.4858691411	 0.3977128386	 0.097323
H	-0.6671973874	-0.2717132045	 2.0067768908	 0.101397
H	-2.1795436274	-0.9405482615	-0.0326665229	 0.084872
