17
gdb 34236	3.37382	1.60986	1.40153	4.6225	76.36	-0.2533	0.0039	0.2572	949.1927	0.139298	-380.832605	-380.826054	-380.82511	-380.863393	26.92	
N	 0.0299820994	-1.1498740096	-0.0005542915	-0.341839
C	-0.0133431157	 0.0058256969	 0.0005609698	 0.198564
C	-0.052169676	 1.4482466207	 0.0376158956	 0.228191
C	-1.1210612555	 2.2529842339	 0.7821408865	-0.286394
C	-0.6324007381	 3.3519792201	-0.1824807673	-0.014752
C	 0.7866338297	 3.6442580837	 0.3583068059	-0.229918
C	 1.329570018	 2.2521479867	-0.0122813853	-0.093369
C	 1.0978918039	 2.2736172892	-1.5338178253	-0.177451
N	-0.3764280543	 2.2430525701	-1.2411256551	-0.164652
H	-2.1142618521	 1.8789663697	 0.5298351111	 0.134855
H	-1.0186049129	 2.4139023033	 1.8563950824	 0.113346
H	-1.2682633211	 4.1755753797	-0.498367641	 0.090762
H	 1.3176130101	 4.4435194695	-0.1647009965	 0.109073
H	 0.7851278381	 3.8659925728	 1.4280487319	 0.108316
H	 2.2404372247	 1.8869915602	 0.4606446783	 0.08663
H	 1.4558193159	 3.1357003549	-2.1039391334	 0.107427
H	 1.3666884159	 1.346559578	-2.046283846	 0.13121
