20
gdb 40455	3.8651	1.31099	1.22695	1.6218	81.95	-0.2365	0.0804	0.3169	1095.8558	0.172832	-365.94259	-365.93521	-365.934265	-365.974593	29.992	
C	-0.2277374758	 1.3969763954	-0.2494765857	-0.268773
C	 1.1900027301	 1.0968470724	 0.155603879	-0.271394
C	 0.1740464039	-0.0227606228	 0.0650721695	-0.113558
C	-0.2887176657	-0.7223476161	 1.292047165	 0.376349
C	 0.2770573816	-2.1130193196	 1.6730588474	-0.285819
C	-1.1012420828	-2.3543138228	 2.2519613985	-0.038121
C	-1.5961901072	-1.0745963222	 2.8405046021	-0.041188
C	-0.5368902932	-0.0086208597	 2.6420892432	-0.298176
N	-1.7507269979	-1.3267106548	 1.3674474768	-0.196322
H	-0.8608366418	 1.9218764265	 0.4568244947	 0.116489
H	-0.4281791905	 1.6397239161	-1.2868196667	 0.115269
H	 1.9695843514	 1.1403054308	-0.5964311223	 0.114333
H	 1.5089044103	 1.4094745301	 1.1442712124	 0.115646
H	 0.2709662912	-0.6799960155	-0.7950472674	 0.085221
H	 0.4424364723	-2.7256452717	 0.7822764595	 0.106377
H	 1.1583111024	-2.1572004531	 2.322470737	 0.093996
H	-1.5869094211	-3.3031945064	 2.450141517	 0.091892
H	-2.4615281975	-1.0369561385	 3.4926725118	 0.092144
H	 0.2962536907	 0.0662952439	 3.3495371036	 0.094899
H	-0.9964530007	 0.973737798	 2.5063370047	 0.110737
