22
gdb 36838	4.20482	0.93997	0.90285	2.0012	86.	-0.2221	0.0823	0.3044	1395.9835	0.195824	-367.119188	-367.110958	-367.110014	-367.152751	32.351	
C	-0.0297762484	 1.5255597963	-0.2153196173	-0.373557
C	-0.1236070628	 0.0127220242	-0.1895255773	 0.038381
C	-0.2555036639	-0.7251504898	 1.1205825757	-0.252108
C	-1.4200978072	-0.6697931884	 0.1614697818	-0.279431
C	 1.3824500752	 2.0418114691	-0.0438083361	 0.33613
C	 2.6396365857	 1.7852722771	-0.9160635762	-0.201949
N	 3.2005961592	 2.719088497	 0.1696750699	-0.145977
C	 1.8924074913	 3.5034136449	-0.0311722842	-0.218783
C	 2.369697001	 1.8594638791	 1.1374855471	-0.196686
H	-0.4342208161	 1.9079571616	-1.163128804	 0.098456
H	-0.6633584851	 1.9441537192	 0.5787207156	 0.09397
H	 0.4772432458	-0.4820502304	-0.9488856706	 0.083707
H	 0.2679261025	-1.6669278997	 1.2428148261	 0.110745
H	-0.3222589237	-0.1352604248	 2.0292221972	 0.110223
H	-2.265328796	-0.0431318414	 0.4272946025	 0.109911
H	-1.6901836187	-1.5737144897	-0.3731755133	 0.110884
H	 3.0862075788	 0.7867013196	-0.9022651632	 0.097111
H	 2.6679742709	 2.2186014024	-1.9205457634	 0.095265
H	 1.8629484762	 4.0699192465	-0.9670526334	 0.095451
H	 1.6272790519	 4.1348258818	 0.822397755	 0.095187
H	 2.1422867591	 2.3640219873	 2.0816268045	 0.093815
H	 2.7928066241	 0.8662016581	 1.3102240739	 0.099252
