25
gdb 117834	1.8639	1.05812	0.79664	0.223	85.3	-0.2565	0.0659	0.3223	1590.3339	0.225801	-426.628205	-426.616272	-426.615328	-426.665357	43.388	
C	 1.3244393503	-0.5819834369	-1.1567923616	-0.413422
C	 0.3794359192	-0.202894804	-0.0104163086	-0.189615
C	 0.8561547509	-0.5847680475	 1.4117534312	 0.329482
O	 2.0906564989	 0.0834178969	 1.7151943091	-0.468489
C	-0.1431184857	-0.0790213483	 2.4743770096	-0.176574
C	-0.387044482	 1.4343158978	 2.4831771949	-0.398042
C	 1.0466223625	-2.1133872562	 1.5236149695	-0.206767
C	 1.5322137884	-2.6147068862	 2.8804377271	-0.089313
O	 1.9401296529	-3.9673040652	 2.7036755275	-0.427118
H	 1.4521004552	-1.6634692716	-1.2577954162	 0.125921
H	 0.9329472313	-0.2093968095	-2.1081347868	 0.118581
H	 2.3166708522	-0.1331825904	-1.0285840052	 0.107204
H	 0.2291714572	 0.8803011113	-0.0331023576	 0.10451
H	-0.6026619403	-0.661303142	-0.1823665835	 0.092584
H	 2.7580936841	-0.2292029332	 1.0960791822	 0.27793
H	-1.090894222	-0.6144017471	 2.3396696437	 0.090378
H	 0.2428034317	-0.3685309801	 3.4569989324	 0.103405
H	 0.5625329727	 1.9739566177	 2.5207697802	 0.135719
H	-0.9379519439	 1.7740476823	 1.6012863793	 0.113565
H	-0.9757987685	 1.7172553866	 3.3613372762	 0.105841
H	 0.1131106385	-2.6231953587	 1.2572818432	 0.098821
H	 1.7930198699	-2.4363248905	 0.7879650703	 0.098799
H	 2.3651327066	-1.9834865688	 3.2219904311	 0.097652
H	 0.7322381046	-2.5464808815	 3.6321698495	 0.085699
H	 2.2371334252	-4.3012689951	 3.5550679023	 0.283249
