19
gdb 117410	4.13846	0.6262	0.59459	3.9949	78.7	-0.2662	0.0058	0.2721	1906.099	0.157922	-419.25949	-419.249044	-419.2481	-419.297387	35.625	
C	 0.1888675765	 1.52247825	-0.066042979	-0.387332
C	 0.3986142752	 0.0072913775	-0.0521518894	-0.153794
C	 0.3469830879	-0.5827848162	 1.3616938436	-0.307743
C	 0.4124404875	-2.1043200923	 1.3542852317	 0.431093
O	-0.0878383017	-2.7880587056	 0.4812776783	-0.365875
N	 1.0539935737	-2.6609584184	 2.4350693631	-0.326781
C	 1.1978651425	-4.0960599162	 2.5602970157	-0.280855
C	 2.6038402432	-4.5152106805	 2.6192297765	 0.253685
N	 3.712332475	-4.8318289416	 2.6930473803	-0.298445
H	 0.955997857	 2.0406255204	 0.5204979136	 0.113574
H	 0.2314151787	 1.9146263432	-1.0864562998	 0.119837
H	-0.7866155757	 1.7926820211	 0.3538556813	 0.115749
H	-0.3617269361	-0.4934215283	-0.6582544998	 0.130398
H	 1.3640177199	-0.2401319968	-0.5094466836	 0.107336
H	 1.1434295723	-0.1645167023	 1.9893691661	 0.100094
H	-0.6019685373	-0.3058601305	 1.8416494261	 0.133178
H	 1.501311832	-2.0669527635	 3.1135539004	 0.259381
H	 0.6820275623	-4.4800839513	 3.4490069486	 0.157963
H	 0.7158604271	-4.5290486187	 1.6777934763	 0.198536
