23
gdb 95764	2.38595	1.40816	1.13954	1.6328	81.92	-0.255	0.0798	0.3348	1224.4835	0.204832	-425.451659	-425.442128	-425.441184	-425.485072	37.359	
C	 0.0667002134	 1.5051896177	 0.0433894365	-0.403759
C	 0.0470872951	-0.0063535168	-0.0431911917	 0.21574
O	 0.7892361971	-0.3939742767	-1.1767986854	-0.245488
C	 0.8241547343	-1.8060820792	-1.3094255166	-0.102391
C	 1.4400231044	-2.4401466125	-0.0617224188	-0.219531
C	 0.7361066675	-1.9459081027	 1.2208182554	 0.362694
C	-0.6364222078	-2.6101377061	 1.4254544521	-0.423069
C	 1.6160947605	-2.1877054505	 2.4465974945	-0.415543
O	 0.6014372586	-0.5118895317	 1.1494805132	-0.295205
H	 1.0982900183	 1.8493005336	 0.1501850424	 0.131845
H	-0.3619241897	 1.9365743775	-0.8641351017	 0.122434
H	-0.510569707	 1.8369586033	 0.9092885175	 0.122608
H	-0.9880787073	-0.3791687047	-0.1600370794	 0.051247
H	-0.1929275111	-2.1923324497	-1.4895997416	 0.088644
H	 1.4223178175	-2.0229516025	-2.1987545545	 0.108562
H	 1.3946670676	-3.5332123924	-0.1252427088	 0.093591
H	 2.495315611	-2.1510389299	-0.0137228437	 0.105728
H	-0.5129115118	-3.6787634354	 1.6279403379	 0.114247
H	-1.143282787	-2.1537966743	 2.2804819317	 0.122459
H	-1.2895350937	-2.5142043513	 0.5545970846	 0.115504
H	 2.5640422648	-1.6534684808	 2.3411355772	 0.121665
H	 1.1182761853	-1.8260993972	 3.3512063212	 0.118554
H	 1.8254355899	-3.2551335877	 2.5679221881	 0.109465
