20
gdb 18753	2.76301	2.17445	1.52713	1.6584	73.58	-0.2509	0.063	0.314	909.3714	0.177959	-348.974936	-348.967166	-348.966221	-349.006721	30.712	
C	 0.5344284876	 1.4824554944	-0.4187705887	-0.427577
C	 0.0791273964	 0.080600331	-0.0181516647	 0.032803
C	 0.5312580823	-1.1092738602	-0.9271036942	-0.248914
C	 1.2558845337	-1.7545522344	 0.2746582425	-0.003412
C	 2.6956209431	-1.213524105	 0.5219562661	-0.289956
C	 2.1427114903	-0.3417597582	 1.6876276653	 0.15998
O	 2.6144110679	 0.963499919	 1.9115344691	-0.434553
C	 0.6906267331	-0.6388723679	 1.2340025542	-0.087784
H	 1.5961560206	 1.5113347791	-0.6932265233	 0.105633
H	-0.0172145763	 1.822454729	-1.3024251518	 0.117318
H	 0.3624388158	 2.2105405323	 0.3808590339	 0.127395
H	-1.010335702	 0.0993510152	 0.0819154131	 0.078322
H	-0.308211792	-1.700040208	-1.3035437405	 0.097389
H	 1.1710595351	-0.8483728178	-1.7773315736	 0.090274
H	 1.1078057766	-2.8188637932	 0.4566920542	 0.063213
H	 3.4592317652	-1.9441128283	 0.7990656153	 0.101367
H	 3.0802677631	-0.6259650078	-0.3190986249	 0.090172
H	 2.3085479885	-0.8646030493	 2.6355800292	 0.090823
H	 2.5248319119	 1.4620500398	 1.094910006	 0.278711
H	-0.0282885909	-0.8337825098	 2.0320313129	 0.058799
