21
gdb 35943	3.13188	1.1379	0.88432	0.9899	90.35	-0.2393	0.0143	0.2535	1343.5077	0.183502	-349.935391	-349.92664	-349.925695	-349.968693	34.387	
C	 0.1104829182	-1.2907760098	 0.1740813738	-0.439267
C	 0.0447847787	-0.0936979854	 0.0856836966	 0.29252
C	-0.0329062019	 1.3647057605	 0.0026658806	-0.215123
C	-0.7978245726	 1.9369384676	 1.2300292833	-0.179201
C	-1.3281764544	 3.3643534422	 1.0406692358	-0.201793
C	-0.2775003807	 4.4743639909	 0.9003144785	-0.176322
C	 0.5996396871	 4.3823197546	-0.3633151855	-0.249121
C	 1.6137496961	 3.2633404011	-0.3465843005	-0.079695
C	 1.353310325	 1.9677544446	-0.182931031	-0.032692
H	 0.1645585858	-2.3489433998	 0.2417896095	 0.190507
H	-0.6345947856	 1.6112393779	-0.8872818395	 0.112555
H	-1.6474027875	 1.275881796	 1.4309475731	 0.105931
H	-0.1420335829	 1.8833307995	 2.1065573343	 0.105145
H	-1.9847279616	 3.383188009	 0.1585286878	 0.092045
H	-1.9710211719	 3.6013811033	 1.8970030334	 0.094325
H	-0.8010466749	 5.4380701584	 0.8862792232	 0.092035
H	 0.3702589447	 4.4849589789	 1.785949686	 0.097557
H	-0.0575445284	 4.2777343331	-1.2402532604	 0.105964
H	 1.124595417	 5.3333882139	-0.4977542638	 0.097594
H	 2.6538360554	 3.5533819508	-0.4770842136	 0.087879
H	 2.1754183144	 1.2584515027	-0.1844235616	 0.099158
