18
gdb 17459	4.17932	1.99764	1.70069	1.2899	70.42	-0.2291	0.0812	0.3103	830.1491	0.154376	-347.775837	-347.76897	-347.768026	-347.806328	28.056	
C	-0.0491797433	 1.4932168988	-0.0361201804	-0.459839
C	 0.0252539003	-0.0061444794	 0.039569725	 0.438079
C	-0.8333457074	-0.8146653861	 0.9799801065	-0.355291
C	 0.6800879011	-0.8218189954	 1.1303220809	-0.117687
C	 1.5093320695	-1.8745254891	 0.4287840631	-0.069449
C	 0.8304626527	-2.9354729311	-0.4183570174	-0.327622
C	 1.2767265161	-1.6395060065	-1.0427855852	 0.095351
O	 0.3420763761	-0.6016935299	-1.2080882218	-0.296532
H	 0.9014800639	 1.9145529876	-0.3788131924	 0.121291
H	-0.8311169863	 1.806548408	-0.7360500727	 0.128464
H	-0.2851308872	 1.9162135182	 0.9444586876	 0.115116
H	-1.3911797877	-0.2651459712	 1.7320045776	 0.108269
H	-1.3446597966	-1.6934955632	 0.6065469399	 0.116643
H	 1.1139000724	-0.3512799504	 2.0049890629	 0.088205
H	 2.4951649291	-2.0776614615	 0.8289697307	 0.089863
H	 1.4192154959	-3.8161926874	-0.6547531369	 0.110339
H	-0.2283995788	-3.1292732847	-0.298320377	 0.119365
H	 2.0556303601	-1.6302691167	-1.7981496203	 0.095435
