19
gdb 37590	2.78994	2.30006	1.9508	1.5259	75.21	-0.243	0.0845	0.3274	818.7779	0.165196	-385.895926	-385.890437	-385.889493	-385.925365	25.21	
C	-0.0124625206	 1.5880029642	-0.0277469431	-0.228792
C	 1.4671865712	 1.9198619025	 0.0819412949	-0.059223
C	 2.4961990105	 0.9416370082	-0.4933768855	-0.078811
C	 2.1049300897	 0.8898814743	 0.9659829671	-0.063507
C	 1.2174288048	-0.3682570303	 0.9160791713	 0.065637
O	 1.993873646	-1.2753224817	 0.1244225402	-0.261483
C	 2.0500075319	-0.4405395225	-1.0494006485	 0.05301
C	 0.5630585473	-0.4031038693	-1.4145074626	-0.201911
C	 0.0117528828	 0.0538565497	-0.0367324416	-0.069783
H	-0.536076391	 1.9901653915	 0.8486112808	 0.092526
H	-0.5016058198	 1.9964244373	-0.9183044886	 0.09593
H	 1.7719178026	 2.9599389387	 0.146214544	 0.079922
H	 3.4535253742	 1.345218035	-0.799452895	 0.086595
H	 2.7772072606	 1.0919912809	 1.7897439655	 0.084158
H	 0.9519598012	-0.830821115	 1.8650746036	 0.074056
H	 2.7315774365	-0.8754173625	-1.7801815149	 0.070436
H	 0.3134203868	 0.2953996472	-2.2171644728	 0.09237
H	 0.2270988127	-1.4045940956	-1.692476345	 0.100003
H	-0.9366899074	-0.4096517125	 0.2338796101	 0.068867
