18
gdb 112075	2.40197	1.41134	1.02642	2.5474	72.86	-0.2507	-0.0355	0.2153	1193.336	0.146998	-439.105828	-439.096998	-439.096054	-439.140412	31.353	
C	 0.0515822367	 1.5312427948	 0.0852842114	-0.388829
C	 0.0739521017	 0.0011831178	 0.0504029767	-0.187459
C	 0.6914274158	-0.5441406762	-1.2437278569	-0.00378
N	 2.1016821503	-0.1397194716	-1.3830619675	-0.261502
C	 2.760236292	-1.1914379422	-1.6248348506	 0.126402
O	 2.1232250747	-2.3847020733	-1.7097249312	-0.206082
C	 0.7524409364	-2.1176372148	-1.3769275558	-0.020841
C	 0.3676397035	-2.8754637177	-0.1170810672	 0.139877
O	 1.1476146003	-3.3901236409	 0.6369485017	-0.231646
H	 1.0629704917	 1.93316923	-0.0077375671	 0.147397
H	-0.5477314913	 1.9357288015	-0.7380407809	 0.113034
H	-0.3819610526	 1.8919663712	 1.0224959939	 0.114004
H	 0.6421778122	-0.3841511618	 0.9052390965	 0.121712
H	-0.9487224494	-0.3851212334	 0.147045175	 0.096322
H	 0.1340411572	-0.1297815774	-2.0932480439	 0.096069
H	 3.8304209803	-1.2463503918	-1.7878242979	 0.149773
H	 0.1178375386	-2.4735636984	-2.1964512826	 0.111856
H	-0.7317614881	-2.9131722156	 0.0577578165	 0.083694
