17
gdb 22759	2.83253	1.06515	0.807	3.625	75.66	-0.2496	-0.017	0.2327	1369.1135	0.134035	-455.109512	-455.100232	-455.099287	-455.144156	32.873	
C	-0.2645258114	 1.435384465	 0.1532042791	-0.392116
C	 0.0379739828	-0.0495762633	-0.0028044737	-0.058765
N	 0.9042667632	-0.4245125338	-1.1509863357	-0.065214
C	 1.958925738	-1.0496797874	-0.3348418619	-0.265432
C	 1.1366225368	-0.6387799906	 0.872528155	 0.387795
N	 1.2391902351	-0.6867433241	 2.129201141	-0.223772
O	 2.4368596387	-1.3030757293	 2.5160438326	-0.385067
C	 0.6006379808	-0.6917073954	-2.4444340606	 0.132862
O	 1.3242841408	-1.2961494169	-3.2074002991	-0.32369
H	 0.6555038105	 2.0246317913	 0.116765356	 0.129999
H	-0.9320965041	 1.7803506735	-0.6421009549	 0.127586
H	-0.7550721773	 1.6119937793	 1.1149074995	 0.139724
H	-0.8908957907	-0.6352675376	 0.0263184421	 0.112128
H	 2.060696212	-2.1290171692	-0.4946448633	 0.150609
H	 2.946051994	-0.5846320062	-0.423697933	 0.147749
H	 2.385597375	-1.2720516106	 3.4777828464	 0.313085
H	-0.3851043642	-0.2744389747	-2.7357049395	 0.072517
