15
gdb 79222	2.74302	1.68267	1.34191	3.6586	69.73	-0.2471	-0.0083	0.2388	957.2009	0.113574	-416.741935	-416.734763	-416.733819	-416.773403	28.286	
N	-0.1015543491	 1.5064921927	-0.0236559685	-0.521539
C	-0.0679224827	 0.0776159667	-0.0254816196	 0.007446
C	-1.3923765123	-0.6800248669	-0.0882228845	-0.136469
C	-1.6951436336	-0.8218496064	-1.5858414385	 0.087287
O	-0.6654887044	-0.136902117	-2.3150787153	-0.321666
C	 0.2687176916	-0.7186819041	-1.3623741088	 0.308453
C	 1.6101988243	-0.9017504073	-1.8445196088	 0.157324
N	 2.7088503055	-1.0489355204	-2.1737859896	-0.33398
C	-0.7868374492	-1.800722289	-0.9314645773	-0.198825
H	 0.8274108408	 1.9037080136	 0.0693501585	 0.239392
H	-0.5021132123	 1.8395233833	-0.8959939126	 0.244008
H	 0.5543932712	-0.3007407684	 0.7886842392	 0.1057
H	-2.1551772549	-0.7511368588	 0.6751720764	 0.109947
H	-2.6762733974	-0.9105519872	-2.0296000749	 0.127566
H	-0.7562885876	-2.8755088509	-0.8363238358	 0.125357
