17
gdb 17046	3.37146	1.80752	1.44893	1.9905	70.07	-0.2466	0.0038	0.2504	918.8909	0.141684	-363.805337	-363.797838	-363.796894	-363.837332	28.152	
C	-0.043285954	 1.5728336209	 0.0135107288	-0.377982
C	 0.0402002054	 0.0526713647	-0.0999613781	-0.144948
N	-1.2987190029	-0.54030367	 0.0394836512	-0.092019
C	-1.880649076	-0.726655968	 1.4393452247	-0.142516
C	-2.8059890104	-1.7885874723	 0.7901119915	-0.220203
C	-1.4107778588	-2.0529176598	 0.1665650223	-0.13992
C	-0.825573522	-1.8564330216	 1.5930915343	 0.418461
O	 0.0739930285	-2.2047181338	 2.2906898681	-0.318936
H	 0.9366107205	 2.0237598529	-0.1683018008	 0.119631
H	-0.7543626694	 1.9764084419	-0.7126786203	 0.127307
H	-0.3688542964	 1.8779563235	 1.01346584	 0.12028
H	 0.3978661558	-0.2276502415	-1.0977137187	 0.108319
H	 0.7690287722	-0.341208105	 0.6259188584	 0.112668
H	-2.1428215035	 0.1136334198	 2.0790459472	 0.100942
H	-3.2277634603	-2.5580557493	 1.4377949756	 0.112772
H	-3.5209763729	-1.3645583106	 0.0841776344	 0.116817
H	-1.132620966	-2.7223524518	-0.6456563886	 0.099327
