22
gdb 38418	3.6097	1.2475	1.23311	1.5703	84.47	-0.2232	0.0836	0.3067	1139.7599	0.196914	-367.185603	-367.177873	-367.176929	-367.217663	31.623	
C	 0.0087870456	 1.5076010778	 0.8309819193	-0.252638
C	 1.1868995807	 0.9725507906	 0.1004434341	-0.011316
C	 2.1648902235	 0.0857294233	 0.8530399455	-0.286195
C	 1.2690402671	-0.9095707321	 1.6268232834	 0.339414
C	 1.9399372427	-2.2623554947	 2.0031745908	-0.281969
C	 2.178419656	-1.7331908095	 3.4417771835	-0.219965
C	 1.1450716673	-0.6128746514	 3.1594862188	-0.257164
C	-0.0097918652	-0.9508828388	 0.7608973325	-0.236555
N	-0.1275850984	 0.3034190722	-0.0039949909	-0.098155
H	-0.0292629461	 1.4062927057	 1.9120525905	 0.115985
H	-0.5106546078	 2.3803216952	 0.4453031527	 0.111764
H	 1.5390761741	 1.4845215226	-0.7910308628	 0.085886
H	 2.7898020751	-0.4511390973	 0.1285029946	 0.101429
H	 2.8396198244	 0.6471386466	 1.5079146355	 0.102531
H	 1.2179168497	-3.0853674696	 1.98468742	 0.098965
H	 2.8150672459	-2.5600046294	 1.418016091	 0.094028
H	 1.9673344979	-2.4139887411	 4.2695349962	 0.096951
H	 3.189757433	-1.3382652913	 3.5710654051	 0.103124
H	 1.3963611022	 0.3975537775	 3.4949502747	 0.095163
H	 0.1501785084	-0.8646722303	 3.5406122258	 0.096859
H	 0.0660394009	-1.7681129686	 0.0321575684	 0.102085
H	-0.9149981572	-1.1231532273	 1.3537138212	 0.099771
