19
gdb 68150	3.71633	1.23416	1.09775	2.9503	75.92	-0.2537	-0.0356	0.2181	1150.5575	0.158215	-423.026402	-423.018002	-423.017057	-423.059409	32.191	
C	-0.1032010483	 1.4777400678	-0.0897259846	-0.49681
C	 0.035475182	-0.0155519713	-0.0171084378	 0.411876
C	 0.758211954	-0.8720350104	-1.0877954726	-0.307107
C	-0.2809036139	-1.8853344409	-0.5305398275	 0.331338
C	 0.2288390795	-2.1698398994	 0.8980371735	-0.259398
C	 0.4659355128	-0.6846277352	 1.3120582407	-0.25371
O	-1.1950469373	-0.7665545299	-0.3307441059	-0.364456
C	-0.8145983285	-2.9907370188	-1.3881081403	 0.051933
O	-0.4080617255	-4.1246390798	-1.3464941007	-0.251415
H	 0.8609553021	 1.9582624593	 0.1062480599	 0.125418
H	-0.4550858759	 1.7919175743	-1.0760212045	 0.128739
H	-0.8175280357	 1.8313276748	 0.6609806761	 0.132777
H	 0.5131335167	-0.5480220013	-2.1003382116	 0.112228
H	 1.8212524657	-1.0991758298	-0.9787103942	 0.105665
H	-0.537735644	-2.663642372	 1.497586474	 0.115241
H	 1.1290296776	-2.7869016316	 0.9059154985	 0.1169
H	 1.503081045	-0.4639533848	 1.578740766	 0.101327
H	-0.1799157665	-0.368048437	 2.1341320874	 0.109151
H	-1.6097076198	-2.671057374	-2.0973465063	 0.090303
