10
gdb 14582	48.41504	0.56091	0.55449	3.6667	100.86	-0.2595	-0.1043	0.1553	1801.5943	0.057802	-342.932283	-342.924293	-342.923348	-342.965013	26.649	
O	-0.1120139251	-0.0353752417	 0.0021363714	-0.215156
C	-0.0267390455	 1.1717059483	 0.0081993772	-0.041966
C	 1.2179680402	 1.8933731078	 0.0001650291	 0.148716
C	 2.2561785331	 2.5284831028	-0.0063259496	-0.348
C	 3.4054291227	 3.2302345112	-0.0134790278	 0.631507
C	 4.4469485412	 3.8642190877	-0.0198241191	 0.01465
C	 5.6003845185	 4.5675808271	-0.0267311499	 0.172236
C	 6.6331495842	 5.1972234016	-0.0327881904	-0.679163
H	-0.9249268718	 1.8207206477	 0.0206445979	 0.110521
H	 7.5408634227	 5.7494219974	-0.0381156588	 0.206655
