25
gdb 102545	2.05881	1.31365	0.96174	1.6565	88.1	-0.2555	0.0769	0.3324	1386.911	0.226986	-389.481017	-389.470186	-389.469242	-389.516591	40.621	
C	 0.295760609	 0.4864789378	 0.6922505754	-0.395483
C	 0.7324913086	-0.819405306	 0.020370641	-0.171578
C	 0.8560218098	-0.7363663237	-1.5188799626	-0.038744
C	 1.8614234783	 0.3430581592	-1.982519062	-0.212969
C	 3.2784374434	 0.2554911429	-1.3964235487	-0.383675
C	 1.082979226	-2.1395336596	-2.1000616953	 0.413047
C	-0.1285735693	-3.055096297	-2.0839280817	-0.460349
C	 2.1260974552	-2.4381922206	-3.0962573493	-0.236226
O	 2.3112689821	-2.7947626999	-1.7234217067	-0.274708
H	 1.0366575163	 1.282558928	 0.5720955066	 0.120481
H	-0.6511468075	 0.849877196	 0.2761602688	 0.110536
H	 0.1484212523	 0.3373998525	 1.7665670742	 0.112445
H	 1.6885373447	-1.1554974474	 0.435841747	 0.116714
H	 0.0065752185	-1.5982238157	 0.2778015661	 0.093751
H	-0.1254241806	-0.422118044	-1.9046991599	 0.067131
H	 1.9111843403	 0.3236802825	-3.0772356331	 0.091586
H	 1.4391232756	 1.3233743885	-1.7335240637	 0.095216
H	 3.9297262188	 1.0012252824	-1.8636122525	 0.105222
H	 3.2788872874	 0.4546167477	-0.3202058457	 0.116291
H	 3.7210940001	-0.7324507713	-1.5396091536	 0.141339
H	-0.918378512	-2.6587092021	-2.7314113577	 0.119195
H	 0.1459350695	-4.050855836	-2.4403503869	 0.124969
H	-0.5433469497	-3.1624429798	-1.0776957222	 0.127617
H	 1.9814868235	-3.2766213291	-3.7778671632	 0.105186
H	 2.7891663198	-1.6620373152	-3.4690170042	 0.113006
