17
gdb 52857	1.84929	1.25925	0.83349	2.1895	82.91	-0.2483	0.0283	0.2766	1417.3085	0.131748	-384.606916	-384.596801	-384.595857	-384.644113	35.179	
C	-0.0971119218	 1.5550849481	 0.2773046293	-0.503956
C	-0.0307349806	 0.1044151962	 0.1936540308	 0.129421
C	 0.0133815144	-1.0961726047	 0.1150525225	 0.038702
C	 0.1050686571	-2.5321056602	 0.0151801055	 0.19531
C	 1.4060216113	-3.0872286905	-0.5685932773	-0.438137
C	 1.6753536555	-2.6303389668	-1.926577059	 0.32608
C	 1.8984413097	-2.2566468295	-3.0459350237	-0.448196
C	-0.6750811037	-3.3818580795	 0.938584658	-0.217791
O	-1.0832381865	-3.2176052442	-0.4155395625	-0.253239
H	 0.6962125152	 2.0211716275	-0.3168759285	 0.154843
H	-1.0566018263	 1.9249302811	-0.1002551347	 0.156299
H	 0.0102386323	 1.9019610126	 1.3108995279	 0.150095
H	 2.2341470927	-2.798496636	 0.0909695807	 0.138744
H	 1.3448382299	-4.1811957075	-0.5501701133	 0.138024
H	 2.090153497	-1.9275025982	-4.0369146925	 0.197471
H	-0.2960985122	-4.3694125946	 1.2018295985	 0.113436
H	-1.3103211341	-2.907770464	 1.6841208683	 0.122893
