20
gdb 95018	2.49435	1.88191	1.42439	2.4349	76.88	-0.2189	0.072	0.291	991.8161	0.17343	-403.103148	-403.095644	-403.0947	-403.134846	30.314	
C	-0.06086381	 1.5857469303	-0.0713271321	-0.41091
C	 0.0316870456	 0.0619456557	 0.0074132409	 0.004236
C	 0.7624481453	-0.5795929825	-1.2020603897	-0.084337
O	 1.3681432201	-1.7945565675	-0.7453106402	-0.268924
C	 1.6220592878	-1.6960731081	 0.6316185758	 0.114788
C	 2.9116534695	-1.0067713322	 1.135167731	-0.081087
N	 2.964915125	 0.344026151	 0.5266857336	-0.332209
C	 2.1090459641	 0.1125810181	 1.7133943851	-0.067097
C	 0.7891780514	-0.5124727805	 1.2191425276	-0.070697
H	 0.9364469377	 2.0328571537	-0.0941791788	 0.136946
H	-0.5938636679	 1.8994250411	-0.9756099467	 0.111729
H	-0.6034102184	 1.9956631067	 0.7871020129	 0.107157
H	-0.9838732389	-0.3511760347	 0.0438071314	 0.073789
H	 0.0747106219	-0.8463578802	-2.012142565	 0.090253
H	 1.5258559448	 0.1015325639	-1.5907158533	 0.113819
H	 1.46925759	-2.6748143735	 1.0948377315	 0.07871
H	 3.8160149188	-1.4790890365	 1.4994932985	 0.089137
H	 3.8258473607	 0.7793594421	 0.8559320498	 0.230161
H	 2.2675991569	 0.6718921948	 2.6269297816	 0.091571
H	 0.1329672654	-0.7908676318	 2.0453145762	 0.072966
