15
gdb 113534	3.91436	0.96917	0.86707	3.446	62.56	-0.2808	-0.022	0.2588	1294.163	0.111257	-494.885172	-494.876873	-494.875929	-494.918835	29.561	
O	 0.0468549608	 1.3715732624	-0.4523567428	-0.408104
C	 0.0484412856	 0.1422979987	 0.245358346	-0.080259
C	-1.3309905881	-0.4655904495	 0.2957900222	-0.063452
O	-1.7632265055	-1.1218089948	-0.9164049579	-0.271688
C	-1.54774649	-1.9134693105	 0.2215347599	 0.205307
C	-0.6298393075	-3.1272222345	 0.3515728549	-0.160722
O	-1.6988686258	-3.8211711074	 1.0714852239	-0.246258
C	-2.5906367239	-2.7785038479	 0.9176795251	 0.413916
O	-3.7219030352	-2.7164405939	 1.2649319895	-0.321809
H	-0.2503449708	 1.192927448	-1.3516706559	 0.297076
H	 0.7510005672	-0.5807399456	-0.1965221192	 0.096635
H	 0.3884650045	 0.36553808	 1.2624179577	 0.126641
H	-2.1065167551	 0.142081938	 0.7612553783	 0.133161
H	-0.3936860385	-3.631322498	-0.5876518459	 0.143301
H	 0.2578394723	-3.0213331151	 0.9779790642	 0.136254
