18
gdb 36202	3.37293	1.18676	1.04403	4.1759	75.63	-0.2348	0.027	0.2618	1171.9437	0.149214	-398.087957	-398.079705	-398.078761	-398.121531	30.796	
N	 0.0976071628	-1.1899886991	-0.1010694034	-0.309693
C	 0.0137091136	-0.0396543967	-0.0270530618	 0.259735
C	-0.0458035553	 1.4186772293	 0.0751396794	-0.411108
C	 1.3409331352	 2.0439851955	-0.0641257871	 0.349153
C	 2.3641026716	 1.7983640661	 1.0795232567	-0.220291
N	 2.7306617839	 3.2456700545	 1.0866749699	-0.316469
C	 1.6799616519	 3.5610379684	 0.0867076989	-0.094775
C	 2.2418881576	 3.5054801134	-1.3519015569	-0.148712
N	 1.855723446	 2.0667845439	-1.4456924602	-0.363876
H	-0.6981666331	 1.8025708788	-0.7153586811	 0.156633
H	-0.4918766662	 1.6838105542	 1.0406244669	 0.144262
H	 1.8973845625	 1.4454441629	 2.0076360211	 0.103935
H	 3.1984940691	 1.1296986554	 0.8403403659	 0.111734
H	 2.5673112644	 3.6853162399	 1.984182414	 0.224452
H	 0.965132562	 4.3429231273	 0.3498582539	 0.073755
H	 1.7203588305	 4.1166562825	-2.0972955183	 0.103125
H	 3.314538541	 3.7175992714	-1.3908764528	 0.111523
H	 2.6087076226	 1.4163546822	-1.6419749751	 0.226616
