17
gdb 120179	5.46092	0.8442	0.82009	3.3137	70.53	-0.2567	-0.0195	0.2372	1425.5145	0.133278	-458.884123	-458.875523	-458.874579	-458.91824	30.991	
C	-0.1101328646	 1.497148252	 0.0010356875	-0.386421
C	-0.12008476	-0.000758952	 0.2459544114	-0.048992
O	-1.2983822507	-0.5398376814	-0.3416937037	-0.257184
C	-1.386904068	-1.9156118812	-0.2563870376	 0.182973
C	-1.9351385965	-2.5524443007	 1.0713978914	-0.127976
O	-3.2731648498	-2.00062648	 0.7344737393	-0.294163
C	-2.7883647722	-2.4802712053	-0.5873918501	-0.123641
C	-2.4013884353	-3.7547122505	 0.2122043895	 0.458922
O	-2.5554797617	-4.9299732459	 0.2408422153	-0.304095
H	 0.7830894574	 1.9470024618	 0.4441259142	 0.119769
H	-0.1125576351	 1.7107132395	-1.071355883	 0.130725
H	-0.9930145163	 1.9631636898	 0.4467365096	 0.135977
H	 0.7691385197	-0.476728267	-0.1984456859	 0.093803
H	-0.1043068342	-0.2192858484	 1.3246844724	 0.096919
H	-0.5234163981	-2.4273775032	-0.7096521306	 0.084888
H	-1.597164254	-2.4732978449	 2.1018424917	 0.117059
H	-3.4209142509	-2.3107389327	-1.4551821613	 0.121435
