21
gdb 40651	3.15436	1.11975	1.09571	2.0056	82.23	-0.2527	0.0774	0.33	1237.8074	0.184564	-387.064914	-387.056764	-387.05582	-387.098524	31.326	
C	 0.0672835391	 1.4550337061	-0.145737286	-0.186522
O	 1.2513957273	 0.6609920944	-0.0847777572	-0.241833
C	-0.01759501	-0.0123365409	-0.1197118914	 0.074505
C	-0.3962973859	-0.7396601178	 1.1267733778	-0.031324
C	-1.661191223	-1.5515843752	 1.332726457	-0.068013
C	-2.4628203596	-2.0596654976	 0.1405752061	-0.213903
C	-1.4633953659	-2.8320544443	-0.760507683	-0.2262
C	-0.2455921339	-3.1789326568	 0.1371951166	-0.217127
C	-0.3123105121	-2.2386362775	 1.3352277434	-0.063415
H	-0.165661586	 2.0183539286	 0.7576613989	 0.108817
H	-0.0914589135	 1.9946653077	-1.0790429084	 0.109822
H	-0.2092833515	-0.5080972368	-1.0680333714	 0.089662
H	-0.1038819454	-0.1701233046	 2.0062442411	 0.087876
H	-2.2029974	-1.3772026263	 2.2565569689	 0.080852
H	-3.2398230591	-2.7360962272	 0.514455478	 0.101443
H	-2.9791107068	-1.2638658152	-0.4074675338	 0.098544
H	-1.9179349851	-3.7301825865	-1.1875359153	 0.098004
H	-1.1554198377	-2.2181783463	-1.6108488566	 0.109164
H	-0.3225750267	-4.2087596314	 0.5035045245	 0.101
H	 0.7003512552	-3.1106857185	-0.4108070098	 0.106177
H	 0.1431717505	-2.5762135641	 2.2601530604	 0.082471
