20
gdb 62623	2.30577	1.84005	1.58817	1.5246	77.41	-0.2417	0.077	0.3187	982.5031	0.170093	-403.101252	-403.092771	-403.091827	-403.133477	33.939	
C	-0.0527055588	 1.635581921	 0.0534440725	-0.45636
C	 0.0749159467	 0.1249998341	 0.0267526039	 0.415028
O	-1.2139623664	-0.3805161491	-0.293570722	-0.489889
C	 1.146706603	-0.5757673499	-0.7963254369	-0.118508
C	 2.3700598847	-0.7657240748	 0.0302833375	-0.041556
C	 2.144980353	-0.1471358215	 1.3960904428	-0.298922
C	 0.7006265944	-0.6599740587	 1.2258607737	 0.270369
C	-0.1372947864	-1.0911311663	 2.3921722518	-0.499117
N	 1.2281983534	-1.729588603	 0.1809532995	-0.220232
H	 0.9026641561	 2.1199161099	 0.2651151306	 0.117888
H	-0.4141782135	 1.9927162904	-0.9153685655	 0.128478
H	-0.779352294	 1.9403890574	 0.8131630088	 0.126468
H	-1.1232479592	-1.3324948196	-0.4250313349	 0.28991
H	 1.1305396643	-0.7543996248	-1.8665957865	 0.094581
H	 3.3087940443	-1.0810720335	-0.4123938475	 0.097595
H	 2.6716865753	-0.7133342606	 2.169995621	 0.109599
H	 2.314557438	 0.9230231456	 1.5487917557	 0.098237
H	-0.3010783594	-0.2481624661	 3.0736094155	 0.123341
H	-1.1157772625	-1.4490695908	 2.0603408255	 0.127457
H	 0.358848677	-1.8891234097	 2.9528785244	 0.125633
