15
gdb 4075	6.53674	1.15675	1.06942	1.4141	65.76	-0.2493	-0.0037	0.2455	1070.6616	0.116976	-399.718923	-399.711438	-399.710494	-399.750969	27.985	
O	-0.2395802173	 1.3035278765	 0.4497539218	-0.39244
N	-0.0481424423	-0.0857939118	 0.330725155	-0.23214
C	-1.0829407667	-0.6440997862	-0.1356837354	 0.418484
C	-2.4731634291	-0.1897445708	-0.5502474195	-0.404019
C	-2.8227435241	-1.6848018609	-0.6751998934	 0.446899
C	-4.0661931692	-2.3809198734	-0.3512992538	-0.26148
O	-3.6176063563	-2.2242583564	-1.7080578546	-0.263812
C	-1.3640333568	-2.1116920712	-0.4068381936	-0.400491
H	 0.6029140314	 1.5939256637	 0.8161770495	 0.307866
H	-3.0243356142	 0.3982034502	 0.188765242	 0.133253
H	-2.494587785	 0.3415950504	-1.5077863839	 0.141376
H	-4.0329879456	-3.3985392295	 0.0358899582	 0.119274
H	-4.9545075257	-1.8093535347	-0.0854267354	 0.1199
H	-0.8677133862	-2.4994437045	-1.3029144121	 0.138329
H	-1.1919530828	-2.8044296413	 0.4212828753	 0.129
