23
gdb 70598	2.0281	1.82033	1.40218	1.2273	84.46	-0.2553	0.069	0.3243	1091.9732	0.205461	-388.305031	-388.295738	-388.294794	-388.337944	37.397	
C	-0.4944458337	 1.3435740233	-0.0422818337	-0.48823
C	-0.0454220331	-0.0979525731	 0.0254116756	 0.376179
C	-0.6079156262	-1.0014117966	 1.1000855544	-0.355804
C	 0.8559110656	-0.6278387901	 1.121802098	-0.071657
C	 1.8306026069	-1.6255537384	 0.5149624585	-0.218991
C	 1.1666494099	-2.0376517514	-0.8157257523	-0.268485
C	 0.3760562719	-0.7880249756	-1.2784985406	 0.328659
C	-0.7808989718	-1.1153788619	-2.2237914546	-0.448537
O	 1.2743244832	 0.1413682367	-1.9067308028	-0.47966
H	 0.2536107491	 1.9619251458	-0.5438429022	 0.136165
H	-1.4385151701	 1.4451055969	-0.5911437978	 0.109255
H	-0.6582420088	 1.7443657831	 0.9629820392	 0.105394
H	-1.2500831817	-0.5247584614	 1.8334777307	 0.104747
H	-0.8987319472	-2.0214722671	 0.8697609415	 0.102203
H	 1.2058798118	 0.0289549682	 1.9114103248	 0.07591
H	 2.785773384	-1.1261835975	 0.3211452266	 0.106852
H	 2.0321829641	-2.4855529097	 1.162923807	 0.090666
H	 1.8916950534	-2.3401345079	-1.5775735703	 0.083903
H	 0.4899324464	-2.8857086333	-0.6703599247	 0.09785
H	-1.5215711024	-1.7568598977	-1.7370804456	 0.117442
H	-1.2784956024	-0.1989577294	-2.5537906484	 0.122849
H	-0.4185783508	-1.6429324648	-3.1150948295	 0.100406
H	 1.5297133222	-0.232123048	-2.7566215337	 0.272884
