21
gdb 38937	2.91789	1.82901	1.56507	1.2881	80.43	-0.2341	0.0875	0.3217	951.0891	0.188067	-387.088562	-387.082104	-387.08116	-387.118975	28.232	
C	-0.0687163877	 1.5752206566	 0.0499262074	-0.241655
C	 1.4844388726	 1.4555332779	-0.0026672272	-0.075331
C	 1.751176404	 0.8373394153	 1.3848197655	-0.23431
C	 0.7452341806	-0.3629946259	 1.3144171801	-0.003489
C	 1.446104458	-1.7122575858	 1.0908475507	-0.23721
C	 2.5189110604	-1.5915366219	 0.0011120236	-0.064332
O	 2.1026801098	-0.8447334746	-1.137651888	-0.284515
C	 1.2081446953	 0.2131634335	-0.9268983581	 0.172284
C	-0.0076848822	 0.027688661	 0.0179973534	-0.060895
H	-0.4969453674	 2.0525217749	 0.9348525127	 0.091748
H	-0.507372659	 1.9988168723	-0.8566589035	 0.096841
H	 2.118392456	 2.282083808	-0.3235845859	 0.059071
H	 2.7866671752	 0.530522479	 1.5441465313	 0.09592
H	 1.4938403391	 1.5396517802	 2.1831884081	 0.092334
H	 0.087404317	-0.4076219409	 2.1865723008	 0.061245
H	 1.9240056717	-2.0713790442	 2.0097896698	 0.095392
H	 0.6991457426	-2.4620936752	 0.8024332454	 0.100102
H	 3.4300876056	-1.1420796021	 0.4203197218	 0.096065
H	 2.7986613325	-2.5803004859	-0.3766871601	 0.102125
H	 0.9110872737	 0.5412062953	-1.9256533614	 0.081474
H	-0.8623841679	-0.5904949175	-0.2603138165	 0.057134
