17
gdb 74724	2.487	1.78016	1.2284	1.9685	79.67	-0.2307	0.0031	0.2338	1036.9382	0.13437	-384.612288	-384.60423	-384.603286	-384.644575	31.591	
C	-0.0783668963	 1.4552594131	 0.0339119363	-0.515147
C	-0.0293090917	-0.0278511731	-0.0304358506	 0.329111
C	-0.0031783677	-0.9103054659	-1.0318112995	-0.215347
C	 0.0522741544	-2.2482905651	-0.2783404214	-0.000866
C	-1.0551632611	-2.0559948881	 0.7944808526	-0.256852
C	 0.0169311828	-0.9866650192	 1.2020197478	 0.253438
O	 1.0388833377	-1.9586707025	 0.7728269118	-0.314532
C	 0.1532191391	-0.4447263263	 2.5273824656	 0.039655
C	 0.2421364625	 0.0265525419	 3.6295297012	-0.324199
H	 0.788533196	 1.8541642134	 0.5743421462	 0.142489
H	-0.0957109804	 1.8958980647	-0.9663522714	 0.127712
H	-0.9662591611	 1.8006032331	 0.5778942295	 0.134684
H	-0.0167209532	-0.756277592	-2.1008374023	 0.109556
H	 0.225325761	-3.1796031525	-0.813570028	 0.085992
H	-2.0410973965	-1.707071522	 0.4824606987	 0.101133
H	-1.1075769089	-2.876396051	 1.5131514841	 0.116319
H	 0.3270083834	 0.4344876215	 4.6065457494	 0.186853
