20
gdb 40831	3.95637	1.0322	0.87293	2.1405	75.4	-0.2506	0.0784	0.329	1337.763	0.173179	-440.256002	-440.247924	-440.24698	-440.289073	30.966	
C	 0.6838803185	 0.3565463387	-0.9403068422	-0.244588
N	-0.5368106382	 1.0143917846	-0.4466611891	-0.313097
C	 0.4258407229	 0.4658161512	 0.5170349009	-0.024878
C	-0.032787639	-0.7145403314	 1.3297455656	 0.138594
C	 1.1176814531	-1.6221478528	 1.7868809259	-0.214657
C	 0.5749737949	-2.6626276205	 2.7702227297	-0.092786
O	-0.1413374697	-2.0296436082	 3.8218916664	-0.233449
C	-1.1753075087	-1.2300968973	 3.3111854209	 0.017686
O	-0.7121834083	-0.2021947918	 2.4775490548	-0.257343
H	 0.5132643122	-0.585779574	-1.4548136501	 0.116554
H	 1.4810569597	 0.9611908751	-1.3643765682	 0.112997
H	-0.4412549789	 2.0245131763	-0.5025938042	 0.234448
H	 1.039934195	 1.1688363043	 1.0774411351	 0.090936
H	-0.7446713858	-1.2981971543	 0.721342365	 0.071176
H	 1.5834754145	-2.1137626295	 0.9257638129	 0.099207
H	 1.8796048302	-1.0135012558	 2.2866564141	 0.108318
H	-0.0864824152	-3.370602276	 2.2410705407	 0.08832
H	 1.3781659977	-3.2365786309	 3.2393831866	 0.111651
H	-1.8969863803	-1.8625634058	 2.7576496518	 0.074274
H	-1.6651077647	-0.7558214516	 4.1639325135	 0.116636
