18
gdb 65665	3.59156	1.23772	1.06227	2.7239	73.88	-0.2453	0.0246	0.2699	1144.6995	0.147041	-439.035698	-439.027446	-439.026502	-439.069263	31.421	
C	-0.0431648913	 1.6179818613	-0.1297032782	-0.483843
C	 0.0624949499	 0.1015911818	-0.0846764888	 0.37091
N	-1.2030060786	-0.553137747	-0.3608936944	-0.335049
C	-2.1516036191	-0.1896559803	-1.2721022703	 0.14988
O	-2.2062587019	 0.8362402712	-1.9162644042	-0.324612
C	 1.3116181882	-0.6732172969	-0.6545687842	 0.011939
C	 2.1908486127	-0.1469898391	 0.4981328509	-0.233981
C	 0.8368741679	-0.6094341213	 1.0793903115	-0.000431
O	 0.9393921215	-1.8199195324	 0.2247985618	-0.329742
H	 0.8811424581	 2.0986778253	 0.1909639424	 0.113282
H	-0.3011798201	 1.9556191298	-1.1324559997	 0.168021
H	-0.8463571014	 1.9462424422	 0.5369913607	 0.132066
H	-1.19326367	-1.5321471139	-0.109339354	 0.253327
H	-2.9314886632	-0.9756061252	-1.3453854728	 0.075463
H	 1.5708392264	-0.9021170279	-1.6885246362	 0.104217
H	 3.0172039243	-0.8089110849	 0.7535797042	 0.119526
H	 2.4689193903	 0.9053068612	 0.5307298711	 0.110059
H	 0.5336441462	-0.7553235937	 2.1174955402	 0.098969
