21
gdb 108815	2.79988	1.06596	0.88101	2.3525	81.41	-0.2328	0.0251	0.2579	1388.8517	0.181579	-424.234277	-424.224548	-424.223604	-424.268849	36.351	
C	-0.133981127	 1.5994000066	 0.1020771741	-0.389926
C	 0.0676769308	 0.0843475838	 0.0246671287	-0.044624
C	 0.8813144312	-0.4114826363	-1.1543904271	-0.172506
C	 1.6508383257	-1.4529770088	-0.8289145069	 0.291842
C	 2.545906848	-2.2365901901	-1.7314289331	-0.18336
O	 2.515040359	-1.6898845965	-3.0370614846	-0.413808
C	 1.475200077	-1.8189492141	 0.6320226632	-0.333621
C	 0.8386600368	-0.5396650662	 1.2267543747	 0.115976
O	 1.8346910941	 0.3320941632	 1.7443357006	-0.431417
H	 0.8201091099	 2.129757889	 0.1581118878	 0.111895
H	-0.6719514907	 1.9601223092	-0.7806457689	 0.108843
H	-0.715582907	 1.8739450969	 0.9877432413	 0.115031
H	-0.927892984	-0.3865391172	-0.0141927069	 0.078908
H	 0.8095635334	 0.0101019914	-2.1495168795	 0.10475
H	 3.5708534904	-2.2335532114	-1.3175922333	 0.093085
H	 2.2233083109	-3.2937466268	-1.7291838679	 0.09547
H	 3.0845923485	-2.2231416498	-3.5983734926	 0.289831
H	 0.8090138115	-2.6872334357	 0.7400407143	 0.104279
H	 2.4081834731	-2.0655859445	 1.1519615954	 0.102643
H	 0.1818147857	-0.7498984105	 2.0749778281	 0.078061
H	 2.4430873627	 0.5276611877	 1.0217345525	 0.278648
