14
gdb 44653	2.5984	1.98465	1.2223	6.09	68.78	-0.2612	-0.0598	0.2014	951.4544	0.102345	-436.736203	-436.729435	-436.728491	-436.767678	25.788	
O	 0.0213654833	-0.0345635214	-0.0327132044	-0.286255
C	-0.0694872872	 1.1505073024	-0.0455112498	 0.403453
C	-1.2062220098	 2.1890574633	-0.0619411247	-0.397873
C	-0.0736967902	 3.2592948003	 0.0070340867	-0.019122
C	 0.2366674964	 4.0559515599	 1.2396463345	-0.100625
C	 1.3305730454	 3.5709702782	 1.8368080083	-0.16344
C	 1.8077844697	 2.3303186515	 1.1531457898	 0.355128
O	 2.6731837211	 1.5693703257	 1.4857474236	-0.311906
N	 0.9353009432	 2.1775580197	 0.0224079091	-0.165181
H	-1.8325103867	 2.1999250299	-0.9550945641	 0.146679
H	-1.8353796289	 2.1251412691	 0.828528967	 0.150391
H	-0.0144508735	 3.8802785089	-0.8936919775	 0.118891
H	-0.3193219698	 4.9390241654	 1.5303996094	 0.132076
H	 1.8272771471	 3.9480434771	 2.7201760621	 0.137785
