14
gdb 25579	7.43275	0.76632	0.69772	2.5438	64.51	-0.235	-0.0415	0.1935	1492.8578	0.099931	-473.847642	-473.839562	-473.838617	-473.882211	27.505	
O	-0.2462919552	 0.2271890118	 0.4880354068	-0.230363
C	 0.0477150129	 1.1408371698	-0.2336543669	 0.139894
C	 1.3723125675	 1.8728332095	-0.1302694656	-0.154591
O	 1.3710976553	 2.8924034435	-1.1312722475	-0.258379
C	 2.4704168404	 3.6323137249	-1.1782590905	 0.511496
N	 3.5372413907	 3.5614182016	-0.44994322	-0.378503
C	 4.3364069004	 4.5869066191	-0.962583235	-0.110715
C	 3.6880051253	 5.2056676503	-1.969788276	-0.042784
O	 2.4601147991	 4.5874621476	-2.1214713844	-0.187567
H	-0.6251391217	 1.5211647719	-1.0324379338	 0.106033
H	 1.4907065369	 2.3097693984	 0.8679890866	 0.161961
H	 2.2056774814	 1.1779853336	-0.2862016096	 0.161987
H	 5.3151456215	 4.7923736654	-0.5598778544	 0.130582
H	 3.8960266254	 6.0201047927	-2.6401906397	 0.150948
