19
gdb 41466	3.27536	1.60299	1.2581	1.647	81.69	-0.2269	0.0128	0.2397	1027.8762	0.161036	-385.84971	-385.842533	-385.841589	-385.881212	28.981	
C	 0.0269826377	 1.5320576156	-0.1799176221	-0.142343
O	 1.3423228362	 1.6292392456	 0.412454881	-0.28601
C	 1.4557521585	 0.2076725967	 0.5435614372	 0.034894
C	 0.8957947635	-0.2965762312	 1.9222633886	-0.349197
C	-0.3776668457	-0.659319303	 1.1764483751	 0.263098
C	-1.3053839245	-1.5985995524	 1.0219465768	-0.233625
C	-1.7569704821	-1.6317011881	-0.4364700199	-0.244543
C	-0.5983282527	-0.8976469145	-1.1950695938	-0.350117
C	 0.0285270118	-0.0124052874	-0.114381154	 0.276048
H	-0.7395017326	 2.0568331406	 0.404503022	 0.10195
H	 0.0309284381	 1.9281567033	-1.2040576651	 0.100804
H	 2.4107657477	-0.1892126245	 0.1894846519	 0.080618
H	 1.4099777542	-1.1417277394	 2.3886110582	 0.114405
H	 0.83488314	 0.5259369884	 2.6397949949	 0.122359
H	-1.647399731	-2.3134815757	 1.761612159	 0.093985
H	-1.8933342244	-2.6577930163	-0.7947628201	 0.104071
H	-2.7205892769	-1.1247181458	-0.5854091875	 0.107017
H	 0.1246889936	-1.6375549322	-1.5555443186	 0.110086
H	-0.9471021912	-0.3333028097	-2.0655859435	 0.096499
