18
gdb 46318	3.16323	1.274	1.17374	1.7428	72.36	-0.2593	0.022	0.2813	1108.0757	0.149584	-439.084698	-439.076864	-439.07592	-439.117951	29.259	
N	 0.2443185911	 1.1705862974	-0.2534228465	-0.550135
C	 0.129239155	-0.0495953308	 0.0097669714	 0.383913
O	 1.0567842401	-0.9802223066	 0.4240535342	-0.258898
C	 0.0356250843	-2.0273226495	 0.487058064	-0.131705
C	-1.0307361753	-1.0247823799	-0.01597158	 0.194035
C	-2.2656513997	-0.7372858161	 0.870937207	-0.326101
C	-3.4654553997	-1.0466030601	-0.0577859939	-0.077843
O	-2.9415585124	-1.8331395266	-1.1181811283	-0.240341
C	-1.6652415547	-1.2914376584	-1.3953547102	-0.157048
H	 1.2032701574	 1.4977073837	-0.1263844597	 0.229812
H	 0.2830847211	-2.8562977255	-0.1811537514	 0.122356
H	-0.0866322172	-2.3856916097	 1.512520473	 0.119757
H	-2.2642874405	-1.3828124528	 1.7529188674	 0.113486
H	-2.2710234907	 0.3002105238	 1.2116812157	 0.134123
H	-4.2604475653	-1.6190966321	 0.4255423825	 0.112969
H	-3.8964665386	-0.1130041922	-0.4506886783	 0.10173
H	-1.7442115059	-0.3389001052	-1.943479645	 0.115308
H	-1.110391589	-2.0067224293	-2.0073633619	 0.114582
