18
gdb 88798	3.1784	1.09168	0.88605	2.0396	74.07	-0.2463	-0.0314	0.215	1318.5916	0.14612	-439.049903	-439.040974	-439.040029	-439.084744	32.014	
C	-0.0865197767	 1.5377961085	-0.1934137687	-0.394446
C	-0.0764241333	 0.0547124787	 0.0864804733	 0.005779
N	 1.1938162892	-0.6634296671	-0.0838816668	-0.335149
C	 0.593875167	-0.5826045682	 1.2581217941	-0.045388
C	 1.3761485871	 0.1912884954	 2.2823250922	 0.027552
O	 0.5572003021	 0.7103855774	 3.3650748669	-0.295127
C	 1.3068118833	 0.0444356562	 4.400008605	-0.189882
C	 2.1808840285	-0.6132376829	 3.3245916568	 0.323646
O	 3.0586932679	-1.4182432272	 3.299956365	-0.26552
H	 0.8493083087	 2.0098331862	 0.1128869558	 0.12797
H	-0.212804017	 1.7201636081	-1.2657919186	 0.121717
H	-0.9120461956	 2.0257392889	 0.3347451911	 0.127428
H	-0.9770529369	-0.4642757125	-0.2408971461	 0.087622
H	 1.0526043466	-1.5871073852	-0.4816929556	 0.238313
H	 0.1109831039	-1.4744876847	 1.6544309692	 0.086166
H	 1.9699635753	 0.9778223864	 1.8012920283	 0.113412
H	 1.8382934765	 0.738748125	 5.0640396943	 0.132292
H	 0.6955903935	-0.6381707232	 5.0038033839	 0.133615
