23
gdb 100975	2.27464	1.07141	0.99248	1.0889	82.13	-0.2522	0.0678	0.3199	1410.0206	0.201995	-425.419119	-425.407925	-425.406981	-425.455471	40.659	
C	 0.2940390203	 1.6249170202	 0.0569874224	-0.385066
C	 0.4300601437	 0.1004312332	 0.0231755147	-0.199575
C	 0.3985158084	-0.5276011968	 1.4226790067	 0.050738
O	-0.8262435679	-0.2666399627	 2.1071265824	-0.433821
C	 0.693109581	-2.0289881367	 1.3919214688	 0.399636
C	-0.3966684508	-2.9067216021	 0.8074689186	-0.492127
O	 2.0249015882	-2.3573785	 0.958331931	-0.307347
C	 1.6638922422	-2.6449428742	 2.3188138906	 0.025244
C	 2.4326978123	-1.9496379148	 3.4123831175	-0.428723
H	 1.1369473405	 2.0819833108	 0.5868533641	 0.116953
H	 0.2689126945	 2.042527127	-0.9538609064	 0.110588
H	-0.6216493433	 1.9231913417	 0.5752075919	 0.122894
H	-0.377599478	-0.3294596129	-0.5862519238	 0.08531
H	 1.3693648947	-0.1925454712	-0.4582894766	 0.122161
H	 1.1638401557	-0.0345833279	 2.02836272	 0.085505
H	-1.5499336925	-0.49500458	 1.5138622444	 0.281003
H	-0.6344650903	-2.6180610361	-0.2218231321	 0.124806
H	-0.0736137732	-3.9501264172	 0.7930569056	 0.13081
H	-1.3111801007	-2.839223472	 1.4054068422	 0.123643
H	 1.5195325486	-3.7127901343	 2.5032036781	 0.080856
H	 2.6091262621	-0.8956750505	 3.1921201885	 0.13102
H	 1.892902956	-2.023453088	 4.362491141	 0.127729
H	 3.4080228184	-2.4305381754	 3.5425526004	 0.127766
