20
gdb 85045	2.1878	1.65581	1.08315	2.8755	75.96	-0.2403	0.0262	0.2665	1157.5307	0.170877	-440.336503	-440.327163	-440.326219	-440.370337	34.882	
C	-0.0656372584	 1.6100158203	-0.0398407506	-0.395601
C	 0.0987785541	 0.0947564535	-0.0147065925	 0.008275
C	 0.8627328545	-0.4862285646	-1.2371173016	 0.111282
O	 1.8864127994	 0.3763661717	-1.7051817128	-0.427309
C	 1.4217829298	-1.8041837259	-0.6900145209	-0.367374
C	 1.615124093	-1.5384810673	 0.8035594887	 0.391356
O	 2.255573605	-2.2027463462	 1.5916253353	-0.392964
N	 0.9039803054	-0.3989518407	 1.1050261944	-0.080266
C	 0.6765851417	-0.0021806823	 2.4779053377	-0.351459
H	 0.9030997763	 2.1128751808	-0.0790982652	 0.123063
H	-0.6307534738	 1.9022274277	-0.929778431	 0.127572
H	-0.6141435536	 1.9652199667	 0.837019616	 0.118593
H	-0.903850743	-0.3655013721	 0.0208473594	 0.076165
H	 0.1903242658	-0.6197980859	-2.0872247246	 0.093425
H	 2.5487885219	 0.4602763995	-1.0094945286	 0.286312
H	 0.7021399461	-2.6245454566	-0.7950745935	 0.131159
H	 2.3499474093	-2.1091414202	-1.1762148298	 0.133836
H	 1.3294224882	-0.6123321171	 3.1043930009	 0.165919
H	 0.9102049579	 1.0555656893	 2.633562451	 0.127406
H	-0.3668463394	-0.1733625807	 2.7763198376	 0.120611
