15
gdb 95618	2.14863	1.82549	1.17764	2.9441	62.33	-0.243	-0.0957	0.1472	1025.3309	0.111414	-494.905477	-494.897217	-494.896273	-494.939454	29.732	
O	-0.0534450454	 1.4084470179	 0.0236224107	-0.420219
C	-0.0128574694	-0.0149095478	 0.0226831197	 0.021923
C	-1.4556121923	-0.5085464849	-0.0293369843	-0.106984
O	-2.0963678588	-0.1044185152	-1.2221837098	-0.229717
C	-1.5644419693	-0.719337185	-2.3743406347	-0.191
C	-0.0617779998	-0.502305501	-2.5493362697	 0.297884
O	 0.4777697808	-0.4679744577	-3.6231769725	-0.262515
C	 0.7639523759	-0.4208211449	-1.2322199507	 0.269071
O	 1.9505192471	-0.6269561017	-1.2349080707	-0.278723
H	 0.8537077223	 1.7297912769	 0.084403934	 0.30231
H	 0.4993115378	-0.4139305518	 0.9096046927	 0.092537
H	-1.4735473783	-1.6059880897	 0.0815971415	 0.0991
H	-2.0206353459	-0.0640266449	 0.7939198801	 0.134662
H	-1.731045503	-1.8133998563	-2.3552579754	 0.121034
H	-2.0883326318	-0.3154896941	-3.243509481	 0.150636
