19
gdb 64933	4.18535	0.70566	0.66143	2.1209	88.15	-0.2349	0.0311	0.266	1758.3391	0.157322	-385.83096	-385.821475	-385.820531	-385.866843	34.378	
C	-0.0240046433	 1.5246511489	 0.0944548762	-0.465591
C	 0.0223364652	 0.0108285817	 0.0488829574	 0.223341
C	 0.8770875226	-0.672709741	-0.9446808057	-0.21097
O	 1.2976050863	-0.5662301508	 0.4102911861	-0.2604
C	-1.1425522392	-0.6693176123	 0.5629460597	 0.016436
C	-2.1352303573	-1.1971535099	 1.0006422397	 0.13516
C	-3.3074197014	-1.8330205821	 1.5245913605	-0.164315
C	-4.2167991094	-2.6418616361	 0.6101094974	-0.251693
C	-3.3724360815	-3.3499204066	 1.6255957907	-0.249565
H	 0.9056693468	 1.9415696746	-0.3006990203	 0.126064
H	-0.8651689485	 1.90124493	-0.4952568166	 0.129557
H	-0.1508818021	 1.8690570493	 1.1249252318	 0.135737
H	 0.6119206239	-1.674484793	-1.2783501196	 0.115424
H	 1.4352569959	-0.0718191975	-1.662976585	 0.111403
H	-3.806430021	-1.2874725084	 2.3203153909	 0.111987
H	-5.2842902121	-2.5655830087	 0.7830584285	 0.119871
H	-3.9290858367	-2.7118660719	-0.4319646192	 0.126691
H	-2.508104017	-3.9020578753	 1.277030003	 0.130141
H	-3.8531492314	-3.765264661	 2.5039771047	 0.120722
