19
gdb 72198	3.32023	1.79443	1.56575	1.8653	76.98	-0.2336	0.0748	0.3084	921.1095	0.161423	-385.852386	-385.845786	-385.844842	-385.882853	28.283	
C	-0.0124442326	 1.4509755901	 0.0255735448	-0.486929
C	 0.0418615208	-0.0576802922	-0.0115880104	 0.324067
C	-0.1164055796	-0.7674104127	-1.3549354506	-0.274947
C	 0.0447790754	-2.2390222349	-0.9884730781	 0.073446
O	-1.1627205034	-2.6800912647	-0.3016437309	-0.311374
C	-0.5525906466	-2.3155213363	 0.9495742037	 0.107706
C	-0.4577579425	-0.797114632	 1.2258317202	-0.133577
C	 1.0308971097	-0.8004814486	 0.8430105824	-0.131077
C	 0.8661057874	-2.2577116106	 0.3553243827	-0.110013
H	 0.7311532069	 1.8859672817	-0.6523165375	 0.116285
H	-0.99805888	 1.8188387155	-0.2808577404	 0.121679
H	 0.1878399618	 1.8341333716	 1.0314487365	 0.115987
H	-1.0879172498	-0.5971819654	-1.8293279032	 0.108445
H	 0.6698620446	-0.4334470686	-2.0451872816	 0.090248
H	 0.3099167381	-2.9109975391	-1.8072842801	 0.073416
H	-0.8565826866	-2.945757963	 1.7874740857	 0.077451
H	-0.9593769789	-0.2576186003	 2.0209902055	 0.078625
H	 1.8822363048	-0.3617378416	 1.3467422586	 0.084292
H	 1.6224766606	-3.0196231888	 0.5222433527	 0.076271
