22
gdb 114067	2.79629	1.18715	1.00121	1.7526	83.65	-0.2018	0.0775	0.2792	1306.9649	0.191996	-404.305867	-404.295951	-404.295007	-404.340163	37.556	
C	-0.0628278229	 1.5579722168	-0.0203980438	-0.37968
C	 0.000373048	 0.0454586408	 0.184486796	-0.12891
N	-1.2981438776	-0.5729175541	-0.0368769207	-0.109236
C	-1.798141365	-0.7121671553	-1.437856554	-0.24575
C	-1.9977561932	-2.2099786552	-1.1936314554	 0.324385
O	-3.1194322211	-2.927832051	-1.5635866545	-0.464159
C	-0.6807096675	-2.8477884154	-0.8216895833	-0.406408
C	-1.4474336914	-2.0148898959	 0.2010802078	 0.302074
C	-1.8850130371	-2.5308994697	 1.5383289797	-0.480352
H	 0.9104059679	 2.0175465882	 0.1784184629	 0.109669
H	-0.3429513224	 1.8057471516	-1.0499936462	 0.1164
H	-0.805791016	 2.0049022967	 0.6463001463	 0.123485
H	 0.7910047286	-0.3801259649	-0.4623335936	 0.072915
H	 0.2941739588	-0.173624742	 1.2182407518	 0.10042
H	-2.7307254887	-0.1622121415	-1.5994190348	 0.11
H	-1.0759619205	-0.4435560618	-2.2221342863	 0.087007
H	-2.9345239972	-3.3714742989	-2.3984103038	 0.286178
H	-0.7424140189	-3.9185900643	-0.651507354	 0.111038
H	 0.2560777482	-2.5089566896	-1.2574540747	 0.101746
H	-1.0710382692	-2.4895915184	 2.271754615	 0.117267
H	-2.7183782743	-1.9345753449	 1.92199022	 0.127456
H	-2.2092819584	-3.5728736712	 1.4598917957	 0.124455
