19
gdb 52433	8.82165	0.43282	0.42081	2.8114	80.9	-0.2538	-0.0238	0.23	2455.655	0.154724	-422.98492	-422.974185	-422.973241	-423.022793	36.008	
O	-0.0899603895	-0.0705760291	-0.0535876749	-0.234118
C	 0.0053277987	 1.1280853058	-0.0936703175	 0.161065
C	 1.3082004979	 1.8964273599	-0.0990849821	-0.277688
C	 1.3858632517	 2.8792593146	-1.2779172613	-0.212517
C	 2.6389045858	 3.7428473256	-1.226360763	-0.036527
O	 2.6184516999	 4.6145424104	-2.3368323642	-0.245441
C	 3.756255728	 5.4531985944	-2.3894162089	-0.208748
C	 3.6776758581	 6.328361488	-3.5511909072	 0.279714
C	 3.638398246	 7.0616069645	-4.5010669062	-0.411188
H	-0.9036572864	 1.7744250902	-0.1321243675	 0.073076
H	 1.3566332493	 2.4592095566	 0.8455322191	 0.120805
H	 2.1343312867	 1.1793032394	-0.106938953	 0.124759
H	 1.3739224168	 2.3322486742	-2.2269197588	 0.126736
H	 0.5088957853	 3.5373542142	-1.2807107775	 0.118183
H	 2.6700418958	 4.3178207511	-0.2839241865	 0.088214
H	 3.5437546716	 3.1110604859	-1.2475886653	 0.092571
H	 3.8302921332	 6.0613729962	-1.4712320059	 0.118875
H	 4.6786387821	 4.8492422326	-2.441166717	 0.119959
H	 3.597741489	 7.7070397055	-5.3434341623	 0.202268
