17
gdb 125213	3.16687	1.3744	0.96603	3.8167	83.95	-0.1887	-0.0145	0.1742	1191.3351	0.138283	-414.210745	-414.202296	-414.201352	-414.243603	32.412	
C	 0.0534259502	 1.4842475457	-0.0123623752	-0.493518
C	-0.0460253256	-0.0138563354	 0.0024141359	 0.413469
C	-1.1963671789	-0.7174805799	-0.1691584329	-0.257437
C	-1.2119156158	-2.1571025095	-0.0930300715	 0.24121
N	-2.3118390072	-2.8319472444	-0.1708883931	-0.56487
C	 0.1459053026	-2.7343569414	 0.0747316154	 0.312165
N	 0.2553837341	-4.1149955496	 0.1311247709	-0.558058
N	 1.2380170248	-2.0418129794	 0.2043571957	-0.292015
N	 1.1153232352	-0.6915757557	 0.2163602091	-0.302525
H	 0.7326041046	 1.8304708408	-0.8001858205	 0.137885
H	-0.9275710693	 1.9264575618	-0.1903713259	 0.149926
H	 0.4320241664	 1.8665030464	 0.9426373794	 0.14041
H	-2.1368976664	-0.204387479	-0.3229078876	 0.104488
H	-2.1440342667	-3.8268896786	-0.0224310242	 0.198761
H	-0.3436219883	-4.6004383505	-0.5236152022	 0.250804
H	 1.2143532903	-4.432417325	 0.0825027354	 0.253652
H	 1.99102748	-0.2073177864	 0.3163252214	 0.265653
