19
gdb 109632	2.06374	1.33733	1.04618	4.5584	77.82	-0.2423	0.0259	0.2682	1245.0442	0.157619	-419.188235	-419.178015	-419.177071	-419.223309	36.451	
C	-0.4125191514	 1.2198422787	-0.3257942966	-0.25179
O	 0.296069094	 0.0365272415	 0.0297181132	-0.243467
C	 0.8633555276	-0.5997862504	-1.0618544305	 0.079621
C	 1.3562750662	-1.997439002	-0.8797132695	-0.109955
C	 1.2982938771	-2.702924043	 0.4550548748	-0.415946
C	 0.0611795816	-1.7507741929	-1.6947662364	 0.083228
N	-1.2471227607	-2.0088863047	-1.1568768993	-0.571547
C	 0.1662917959	-1.9111250778	-3.1249476417	 0.280805
N	 0.2905697557	-2.0423802789	-4.2682306128	-0.350232
H	 0.2549293882	 1.9447352567	-0.8110492301	 0.124497
H	-1.2482893086	 0.9997832629	-1.0018014683	 0.136394
H	-0.7949163863	 1.6491447561	 0.6020797086	 0.13687
H	 1.4020412051	 0.0583703114	-1.7426273046	 0.111764
H	 2.2224205167	-2.2442865425	-1.4871177505	 0.113101
H	 0.4111176539	-2.4252661639	 1.0259737265	 0.125671
H	 1.2979307505	-3.7891438238	 0.3189676008	 0.126272
H	 2.1725026432	-2.4411332387	 1.059199103	 0.13427
H	-1.3744371291	-2.9924835191	-0.9423099849	 0.242214
H	-1.3678315796	-1.4804322996	-0.2995860117	 0.248231
