23
gdb 111685	2.29197	1.31105	1.12353	1.4136	84.9	-0.2503	0.0722	0.3225	1255.9545	0.207104	-388.29035	-388.281088	-388.280144	-388.324568	35.625	
C	-0.1687328369	 1.5888197951	-0.1906462836	-0.376133
C	-0.3513536512	 0.0654234161	-0.1921397902	-0.203098
C	 0.5231674566	-0.6028491555	-1.2368716639	 0.020647
C	 1.9299741143	-1.1177559195	-1.0305667228	-0.066034
C	 2.420393007	-1.4425362466	 0.3792759626	-0.222741
C	 1.4004362188	-2.4430876509	 0.9750538222	-0.268348
C	 0.5965532814	-3.0276869903	-0.2196236548	 0.128317
O	-0.7962354439	-3.1727055863	 0.0472470264	-0.436079
C	 0.8122578995	-2.080911937	-1.3839156478	-0.088173
H	 0.8664168881	 1.864004946	 0.0390537355	 0.114438
H	-0.4127486292	 2.0174640857	-1.1693391691	 0.110762
H	-0.816513357	 2.066185645	 0.5515224789	 0.106973
H	-0.1456515243	-0.3212723935	 0.8078599216	 0.097883
H	-1.3997778059	-0.1816752892	-0.3965829464	 0.107718
H	 0.4012619846	-0.1287475594	-2.2106335821	 0.077171
H	 2.6814703422	-0.8450871448	-1.7644353349	 0.075637
H	 3.4112450212	-1.9041720157	 0.3072731069	 0.099534
H	 2.5375208454	-0.5528498395	 1.0087354042	 0.099768
H	 1.8946266007	-3.2298884031	 1.5535085416	 0.090535
H	 0.6973326247	-1.9500295347	 1.6511595215	 0.112691
H	 1.0169242102	-4.0062267586	-0.5011781089	 0.062293
H	-0.8970023283	-3.82927607	 0.7439053235	 0.278533
H	 0.7263961419	-2.5064201733	-2.3779559003	 0.077705
