17
gdb 27529	5.60131	0.91399	0.83128	2.1691	76.6	-0.2137	0.0168	0.2305	1381.5863	0.135662	-421.836774	-421.828511	-421.827566	-421.870303	30.134	
C	 0.1131050293	 1.502097477	 0.0805281241	-0.48822
C	-0.0629981786	 0.0287805325	-0.0060338143	 0.387348
C	-1.1387043209	-0.7951717517	 0.1156541918	-0.414547
C	-0.6577365183	-2.136482396	-0.0796936683	 0.264777
C	 0.6790871766	-2.0184971169	-0.2983007695	-0.116451
O	 1.0551815797	-0.7110047682	-0.2583551501	-0.181236
C	-1.4365683545	-3.3907659662	-0.0480467557	-0.050355
C	-1.589990643	-4.2535215971	-1.2358061223	-0.167349
O	-0.6926916809	-4.6046164155	-0.1838051996	-0.230359
H	 0.8185687665	 1.7760069064	 0.8731256665	 0.140045
H	 0.4987312903	 1.9171086624	-0.8576782972	 0.139192
H	-0.8457550799	 1.9784225926	 0.2961270341	 0.135347
H	-2.1546619015	-0.4904018677	 0.3156383489	 0.106248
H	 1.4596013907	-2.7396576557	-0.4686724913	 0.146675
H	-2.2289193684	-3.4349816711	 0.700714299	 0.097532
H	-2.4679596068	-4.8913184591	-1.3340761873	 0.114683
H	-1.1197071304	-3.9471294855	-2.1684963088	 0.11667
