21
gdb 108177	3.1616	1.4191	1.31927	1.2872	82.27	-0.2349	0.0122	0.247	1089.5382	0.184117	-387.097629	-387.089715	-387.088771	-387.129759	32.149	
C	-0.0967667092	 1.5479121047	-0.0225463974	-0.386562
C	 0.0001676926	 0.0179848933	-0.0445371057	-0.280063
C	 0.7963381637	-0.5305584929	-1.2107646604	 0.418413
C	 0.851888178	-2.0540892057	-1.4343926333	-0.262441
C	 1.659681757	-1.8913923963	-2.7464783051	-0.108942
C	 0.679189228	-0.9359822084	-3.4951985165	-0.069702
O	 0.1628184288	-0.0935498739	-2.4632795168	-0.314123
C	 2.7898198551	-0.9999051344	-2.2607489297	-0.088985
C	 2.2767580459	-0.1754377173	-1.341188478	-0.114124
H	 0.8873502098	 2.0140810903	 0.0913453492	 0.112607
H	-0.5367421183	 1.9162357259	-0.9522395517	 0.139808
H	-0.7193181387	 1.8839879507	 0.8121072103	 0.108489
H	 0.4588948179	-0.3461639361	 0.8829841199	 0.096998
H	-1.0078179363	-0.4109027917	-0.089891645	 0.101139
H	 1.4043057521	-2.5889614142	-0.6602543463	 0.100312
H	-0.1425005399	-2.4906660668	-1.5697855693	 0.094692
H	 1.9325389346	-2.789027824	-3.3003389344	 0.066851
H	 1.1813977971	-0.3352818504	-4.2627712307	 0.094723
H	-0.144663011	-1.491405485	-3.9620708557	 0.095569
H	 3.7850052995	-0.9765635504	-2.6873357455	 0.096878
H	 2.7614919233	 0.6644822924	-0.8606084278	 0.098461
