19
gdb 64245	2.77158	1.05098	0.93644	4.2043	73.51	-0.2702	0.0098	0.28	1320.2628	0.156614	-460.179322	-460.16975	-460.168805	-460.214245	34.877	
C	-0.0284919735	 1.5780255791	 0.1844897707	-0.445707
C	 0.0163151191	 0.0584275502	 0.0851544454	 0.366011
O	-1.2794018335	-0.4975911743	-0.007665273	-0.478167
C	 1.0958655723	-0.4760626172	-0.9145356347	-0.282575
C	 2.0581901427	-0.6850538697	 0.2884713457	-0.272745
C	 0.8278973465	-0.6266533145	 1.2125838397	 0.119347
O	 0.9879873658	 0.0824282204	 2.4336404867	-0.18991
C	 0.4114921242	-0.4131894177	 3.5476032857	 0.163558
O	 0.4625335223	 0.1437679913	 4.6020471599	-0.276285
H	 0.9690696271	 2.0073920478	 0.308805574	 0.131821
H	-0.4601274428	 1.9985604613	-0.7321039323	 0.108789
H	-0.6399110125	 1.8877899481	 1.0359434993	 0.137929
H	-1.7935766345	 0.0234788427	-0.6334851772	 0.27943
H	 0.7705460996	-1.4205148094	-1.35601112	 0.113559
H	 1.4217701532	 0.2026491085	-1.7052645136	 0.103033
H	 2.6590355588	-1.594979605	 0.3157087165	 0.111515
H	 2.7090390183	 0.1764140078	 0.4541125048	 0.125213
H	 0.4064536028	-1.6203098045	 1.4016730218	 0.100579
H	-0.097227866	-1.380621635	 3.3714620305	 0.084605
