16
gdb 124298	4.8806	0.97062	0.82931	6.48	70.93	-0.2488	-0.0408	0.208	1335.6674	0.124463	-434.091494	-434.083168	-434.082224	-434.125564	29.549	
C	 0.0927320966	 1.4970900621	 0.0946913908	-0.47699
C	-0.3445487627	 0.0533909741	-0.017849698	 0.394875
O	-1.1780132609	-0.4245884603	 0.7202715346	-0.301375
C	 0.301304589	-0.7513895319	-1.1475602932	-0.446789
C	 0.2655528989	-2.2381621896	-1.0008338937	 0.351478
C	 1.0633032494	-3.2368815975	-1.5152957305	-0.158053
N	 0.5853707901	-4.4430788249	-1.1041082457	-0.190482
N	-0.4668289091	-4.2500339523	-0.3589264069	-0.117676
N	-0.6709355496	-2.9234850848	-0.3008071074	-0.223475
H	 1.1207385496	 1.5353208309	 0.4746631734	 0.156177
H	 0.0983692608	 1.9834460237	-0.8864757464	 0.14436
H	-0.5638585309	 2.034290893	 0.7793984885	 0.153782
H	-0.2328180609	-0.4392255032	-2.0599990573	 0.160685
H	 1.3329156839	-0.4162488693	-1.2966443363	 0.143148
H	 1.9351830229	-3.1567337576	-2.144858249	 0.116845
H	-1.3892419271	-2.5175005224	 0.281480417	 0.293491
