19
gdb 109638	2.17927	1.28586	1.05818	2.4109	79.41	-0.2234	0.043	0.2664	1241.5782	0.155232	-422.960839	-422.950437	-422.949493	-422.995946	37.655	
C	 0.2445699018	 1.0684826277	-0.2133546586	-0.239625
O	-0.3578450539	-0.0021772318	 0.4972245819	-0.254012
C	 0.492790346	-0.6398510915	 1.3907801837	 0.002918
C	 0.0435750824	-2.0152703653	 1.755857128	 0.061794
O	-1.1091725897	-2.5079388658	 1.1605907731	-0.430108
C	 1.3274551724	-1.8489942429	 0.9101448339	 0.022235
C	 1.2818900422	-2.2697545471	-0.5492222576	-0.457483
C	 2.570144525	-2.053452095	 1.5963508551	 0.275756
C	 3.6064470379	-2.2166773524	 2.1876514689	-0.448777
H	 1.0842140524	 0.7217642864	-0.8280460643	 0.125961
H	-0.525721239	 1.4963849532	-0.8581820769	 0.13426
H	 0.6073534733	 1.8424026018	 0.4768568378	 0.120085
H	 0.9406864398	 0.0072040461	 2.1444321868	 0.102547
H	 0.1744462518	-2.3575169848	 2.7777340846	 0.114378
H	-1.5141897905	-1.7716623179	 0.6835840745	 0.302378
H	 0.3154326645	-2.0308520438	-0.9944478475	 0.122705
H	 2.067642541	-1.7702097815	-1.1234154602	 0.121245
H	 1.4350812769	-3.3493798487	-0.6342118334	 0.133583
H	 4.5225935255	-2.3690911767	 2.7017384799	 0.190159
