18
gdb 78048	2.71885	1.35229	1.22042	2.9226	73.54	-0.2322	0.0154	0.2476	1103.5482	0.145561	-439.074751	-439.065653	-439.064709	-439.108108	33.946	
C	-0.1083479868	 1.2866540421	 0.2850783701	-0.348619
N	-0.0492449691	-0.0757818461	-0.1961906666	-0.087677
C	-1.0747822744	-1.1116798604	-0.1849755443	-0.064094
C	 0.0232993916	-2.1652810106	-0.0813093297	-0.310644
C	 0.9959694479	-0.9926716518	-0.0589952941	 0.395838
O	 2.1790920702	-0.8299551815	 0.0786238548	-0.372439
C	-1.0195594325	-1.9655063625	 1.0471695497	 0.382337
C	-0.6597912427	-1.4851341843	 2.4329720112	-0.467619
O	-2.0375021825	-2.9252282165	 1.0202840395	-0.45819
H	 0.9186573409	 1.6537300297	 0.3561477475	 0.158195
H	-0.66006949	 1.9248380815	-0.4125325321	 0.130878
H	-0.580425312	 1.3615138848	 1.2739045381	 0.121038
H	-1.9216721273	-1.093081734	-0.8590895932	 0.119278
H	 0.1125309276	-3.1060807838	-0.6043957404	 0.117109
H	 0.1277269039	-0.7297791501	 2.4173383715	 0.146314
H	-1.5431737341	-1.0720084886	 2.9300103152	 0.129988
H	-0.2913871914	-2.3237875053	 3.0362218965	 0.119026
H	-1.7516630592	-3.6827609927	 1.5434875764	 0.289282
