19
gdb 103454	2.79746	1.3694	1.2012	2.0942	76.57	-0.2129	0.0205	0.2334	1106.5941	0.159412	-423.011662	-423.003268	-423.002323	-423.044326	32.999	
O	-0.1482351799	 1.4646778724	 0.1888580033	-0.436758
C	 0.0380393717	 0.068177563	-0.0681256006	-0.168092
C	-1.330627881	-0.5538762057	 0.0201070219	 0.437249
O	-2.2466364694	 0.0847643873	-0.8262400488	-0.480442
C	-1.5968244529	-2.0200684297	 0.1509674184	-0.122601
C	-0.4965415402	-2.9751139095	 0.6220005896	-0.28366
C	-0.1950085569	-2.5055304853	 2.0317632714	-0.08316
C	-0.9904384165	-1.4988743543	 2.4074842358	-0.07904
C	-1.9256531708	-1.0910135391	 1.3265938491	-0.149675
H	 0.6239822659	 1.9378499264	-0.1323917808	 0.292081
H	 0.4363215573	-0.0879998555	-1.0814043958	 0.094063
H	 0.7284987047	-0.3777270275	 0.6557612062	 0.103033
H	-2.1006952355	 1.0296405244	-0.6842720009	 0.28672
H	-2.3891589037	-2.3963215893	-0.4852885367	 0.097339
H	-0.8451335813	-4.0165917103	 0.6099041924	 0.10902
H	 0.3927682815	-2.9478702584	-0.0220647186	 0.10637
H	 0.5935347474	-2.9423337418	 2.6341972396	 0.09193
H	-0.9592521691	-1.0042167173	 3.3718474141	 0.094961
H	-2.9408775315	-0.7811847896	 1.5465773403	 0.090661
