19
gdb 50088	4.26535	0.71496	0.66087	3.0756	78.3	-0.2481	-0.0199	0.2282	1676.014	0.157697	-422.998212	-422.989133	-422.988189	-423.033327	32.632	
O	-0.0905721955	 0.1118783283	-0.724544143	-0.269922
C	 0.0103011031	 1.2064506586	-0.2263838737	 0.1667
C	 1.2942802726	 1.8422835379	 0.1400237958	-0.123079
C	 1.4100212116	 3.3617430565	 0.0482233352	-0.300997
C	 1.4289876938	 2.7122472433	 1.3908253928	 0.011913
C	 0.3074272509	 2.9061311766	 2.3961435845	-0.268574
C	 0.5845583408	 4.092526918	 3.2917536577	 0.106687
C	 0.2521598731	 4.090636488	 4.7206370659	-0.18086
O	 1.6002497405	 3.9079993827	 4.2826692454	-0.236497
H	-0.895112091	 1.8255006812	-0.0256297297	 0.06239
H	 2.1613443023	 1.2515760511	-0.1346485903	 0.109663
H	 2.3247364165	 3.7640729338	-0.3710589672	 0.131483
H	 0.5104543911	 3.8976972127	-0.2418986642	 0.121563
H	 2.4040082696	 2.6265427965	 1.8622271891	 0.119654
H	-0.6516879258	 3.0633558116	 1.8895884276	 0.105777
H	 0.2027849471	 2.010365226	 3.019020575	 0.115655
H	 0.6397572709	 5.0570351868	 2.7833767673	 0.095021
H	 0.049341132	 5.0297542366	 5.2333016323	 0.117414
H	-0.2193799736	 3.2118234036	 5.1590162997	 0.116011
