21
gdb 79746	2.35509	1.73635	1.3532	1.8208	81.39	-0.2459	0.0786	0.3245	1063.3332	0.182837	-387.071234	-387.062852	-387.061908	-387.103621	33.304	
C	-0.3073749832	 1.5455459408	-0.0116352251	-0.421655
C	 0.0432554182	 0.0704752508	-0.0068678836	-0.045698
C	 1.3708794769	-0.5786866719	-0.3756531417	-0.124176
C	 2.6764520841	 0.1740932296	-0.3139456885	 0.030526
O	 2.6105274924	 1.5503289314	 0.0959463764	-0.253545
C	 2.9540927223	 0.5653696233	 1.0778525337	 0.044354
C	 1.801741318	 0.0963135778	 1.960430778	-0.328469
C	 0.8236920224	-0.6772372762	 1.0500379696	 0.311531
C	 0.2570088221	-1.9633530929	 1.6115205702	-0.475646
H	-0.4105248596	 1.9133512593	-1.0384670874	 0.115229
H	-1.2723600973	 1.6912627555	 0.48797075	 0.10323
H	 0.4413544975	 2.1617633861	 0.4794977978	 0.142957
H	-0.787217815	-0.5315301416	-0.3761339998	 0.078968
H	 1.3448133241	-1.4352173489	-1.0421074104	 0.076086
H	 3.456148762	-0.0480159162	-1.0377115741	 0.09352
H	 3.9541209024	 0.667560573	 1.4940889499	 0.092643
H	 2.1938765273	-0.5822757316	 2.7264807783	 0.10232
H	 1.3313398958	 0.9336907686	 2.4879226487	 0.115249
H	-0.3895244374	-1.7712767349	 2.4766396033	 0.117405
H	-0.344511383	-2.4892447871	 0.8631914907	 0.113879
H	 1.0527153198	-2.6435609549	 1.9390128842	 0.11129
