19
gdb 26391	4.12424	0.97919	0.86237	3.9301	78.26	-0.2124	0.037	0.2494	1378.6239	0.159351	-419.241831	-419.232801	-419.231857	-419.276592	33.219	
C	 0.2389525891	 1.4717230092	-0.0796560238	-0.389626
C	 0.0288925958	-0.016786238	 0.1525909639	 0.12474
C	-0.0524083468	-0.3890629546	 1.6284014657	-0.388392
O	-1.2096673617	-0.3518610304	-0.532240356	-0.294171
C	-1.4286978683	-1.6592491717	-0.7786493112	 0.344047
C	-2.098184026	-2.6487011273	-0.1064316901	-0.180553
N	-2.0865298613	-3.8170373763	-0.838153438	-0.251589
C	-1.4234021391	-3.5417708544	-1.9355078127	 0.013293
N	-0.9930814994	-2.2456643507	-1.954996604	-0.301502
H	 1.1712127387	 1.8025070283	 0.3869902062	 0.119286
H	 0.2849956439	 1.6949447556	-1.1488662692	 0.119002
H	-0.5870697805	 2.0433637764	 0.3546270895	 0.130763
H	 0.8404389281	-0.5852259715	-0.3239061578	 0.076218
H	-0.2476655862	-1.4576439466	 1.7495294682	 0.13419
H	 0.8919637906	-0.1559303777	 2.1303998657	 0.116906
H	-0.8546927565	 0.1711706571	 2.1189476621	 0.124405
H	-2.5920742448	-2.5775766532	 0.8498451016	 0.109756
H	-1.223652749	-4.2274559601	-2.7455305776	 0.127589
H	-0.5089193169	-1.7681689939	-2.6969832424	 0.26564
