16
gdb 126782	2.6276	1.37213	0.95746	2.9442	67.	-0.2184	0.0381	0.2564	1200.994	0.12535	-471.24357	-471.235018	-471.234074	-471.277287	31.234	
C	-0.237679093	 1.5477507718	-0.0633972243	-0.375818
C	 0.1169278981	 0.0629652136	 0.0144902666	-0.149921
N	 0.7869576589	-0.4104830447	-1.1822677382	-0.026264
N	 0.1176852003	-0.4909272205	-2.391796696	-0.33942
C	 1.0688231994	-0.9305007896	-3.1857649041	 0.433914
O	 0.8427033714	-1.158618118	-4.4867009321	-0.408554
N	 2.2918180845	-1.1434223878	-2.6170559168	-0.469546
C	 2.0547173185	-0.7988154395	-1.3645353157	 0.460416
O	 2.9312598704	-0.8158848371	-0.353202109	-0.423334
H	 0.6638435128	 2.1613808592	-0.1496420048	 0.125902
H	-0.8716597918	 1.7389046067	-0.9321992219	 0.15274
H	-0.7777874897	 1.8512845548	 0.8382935253	 0.120066
H	 0.7882737305	-0.141484043	 0.852051975	 0.13693
H	-0.7865417725	-0.5398778898	 0.1504967104	 0.132862
H	 1.6732856567	-1.4757907432	-4.8598116931	 0.309364
H	 3.7661954754	-1.1401286129	-0.7128500813	 0.320662
