18
gdb 93534	2.98086	1.28922	1.05432	2.2169	67.93	-0.2401	0.0268	0.2669	1142.9158	0.149142	-476.263507	-476.254955	-476.254011	-476.296634	32.646	
O	 0.0239732781	 1.4447034607	 0.0802228921	-0.441357
C	 0.0231550011	 0.035117342	 0.0046038525	 0.129506
C	 0.8001253983	-0.5641526806	 1.1860292267	-0.172974
N	 0.6784417022	-2.0149611516	 1.2280543274	-0.316442
C	-0.4020215061	-2.750813402	 0.8261852388	 0.405375
O	-0.5387766507	-3.9211121758	 1.1294455116	-0.377251
C	-1.3799466894	-2.0479002228	-0.1140345323	-0.34452
C	-1.4003686422	-0.5235843672	-0.0186340998	 0.061842
O	-1.9948911101	-0.0617280869	 1.1969688285	-0.447699
H	-0.6371466141	 1.6727778562	 0.7467132008	 0.291275
H	 0.5187797537	-0.2325105105	-0.9348729804	 0.096348
H	 1.8557916256	-0.29339324	 1.0924547183	 0.118121
H	 0.4202505854	-0.1085614357	 2.1102929271	 0.1174
H	 1.2867687833	-2.5176364593	 1.8594003483	 0.247015
H	-1.1054474807	-2.3431202206	-1.1348722816	 0.134897
H	-2.3715918734	-2.4718070456	 0.069465523	 0.12292
H	-1.9322192396	-0.0962604266	-0.880641212	 0.080528
H	-2.9257896814	-0.3030008538	 1.198446091	 0.295021
