19
gdb 104481	2.16919	1.81784	1.19543	3.1119	76.36	-0.2215	-0.0376	0.1839	1080.295	0.158897	-419.119685	-419.11097	-419.110026	-419.15361	32.381	
C	 0.788270372	-0.187553718	-1.3374165392	-0.336071
N	 0.0466326013	-0.0344877714	-0.0844506557	-0.345584
C	 0.6710050216	-0.6618823019	 1.0672815978	 0.253383
C	 1.9731261641	 0.0372961714	 1.4150561038	 0.088472
O	 3.0131011331	-0.4772248616	 1.746389466	-0.254029
C	-0.2564119939	-1.0361521602	 2.2962305036	-0.100096
C	-0.9363502019	-2.1021022493	 1.4024440392	-0.205159
C	 0.5973030303	-2.2200875278	 1.1999612874	-0.059445
N	 0.7123175119	-2.1203771349	 2.7119120208	-0.33165
H	 0.822943988	-1.2475934987	-1.6085457801	 0.135296
H	 0.2581648892	 0.3421402217	-2.1334001739	 0.126716
H	 1.8265943713	 0.1828759404	-1.3110712979	 0.110079
H	-0.1297903339	 0.9478345691	 0.1025878042	 0.221016
H	 1.8993366744	 1.1485298291	 1.3112650503	 0.068419
H	-0.7083688481	-0.3495242538	 3.0148046241	 0.083335
H	-1.3795095171	-2.9285926752	 1.9569312077	 0.109449
H	-1.5298243157	-1.7482632645	 0.5643747015	 0.118204
H	 1.1610843919	-2.9596825621	 0.6307148995	 0.088659
H	 1.6217713716	-1.7260593023	 2.9582020607	 0.229009
