21
gdb 86337	2.23762	1.57713	1.12037	2.1766	77.74	-0.251	0.0721	0.3232	1164.4728	0.182887	-424.193235	-424.184508	-424.183563	-424.226465	33.983	
C	-0.7371737899	 1.3556574038	 0.0180033836	-0.419712
C	 0.0468333416	 0.0534896581	-0.0653402026	 0.032344
C	 1.4642513035	 0.0845354433	-0.6973375056	-0.273431
C	 1.9270989797	-0.9444951876	 0.3623352381	 0.154548
O	 3.2214088658	-0.8538532515	 0.8936380981	-0.441539
C	 0.6684253232	-0.578217403	 1.2318147185	-0.129844
C	 0.8888186636	 0.3806919435	 2.3758831417	 0.08854
C	 1.9257580498	 0.2055713532	 3.3998903126	-0.199315
O	 2.0716742577	 1.2106320158	 2.3788385388	-0.258304
H	-0.1520227554	 2.1481140653	 0.4963574685	 0.128152
H	-1.0049668263	 1.7047996321	-0.9852000998	 0.116539
H	-1.6688981913	 1.2352298889	 0.5828675916	 0.112101
H	-0.5659385559	-0.7061462494	-0.5623837023	 0.073767
H	 1.5718918297	-0.1806571297	-1.7519585454	 0.096101
H	 1.9476678185	 1.0523252809	-0.5240189444	 0.10631
H	 1.8242264839	-1.9667412883	-0.0137378117	 0.088463
H	 3.3039440959	 0.0473275436	 1.2358642865	 0.291523
H	 0.11281339	-1.4346896787	 1.6306269863	 0.075356
H	-0.00232796	 0.9301598579	 2.6832906261	 0.100188
H	 1.7644519144	 0.5966251858	 4.4025755702	 0.11962
H	 2.6171092716	-0.6285664241	 3.315284011	 0.138595
