21
gdb 105480	1.96779	1.49086	1.17961	2.4723	78.23	-0.2385	-0.0088	0.2297	1189.0992	0.180653	-424.233008	-424.223064	-424.22212	-424.26818	36.468	
C	-1.5098082003	 0.1160013746	 0.6805171723	-0.495442
C	-0.0961305354	 0.0621411838	 0.1293981819	 0.340521
O	 0.8052015956	 0.6822544069	 0.6474136707	-0.308404
C	 0.1471898338	-0.8311925364	-1.0862368297	 0.198829
C	-0.8990390385	-0.5969441961	-2.1771009049	-0.129144
O	-1.0093277206	 0.7688751174	-2.5449254624	-0.421651
C	 1.610065175	-0.8436405382	-1.6185937742	-0.274307
C	 1.5991189854	-2.3946431475	-1.5895506895	-0.208094
C	 0.2995876168	-2.3568826554	-0.7409173115	-0.273951
H	-2.1210532247	 0.7370856717	 0.0164629369	 0.164855
H	-1.9701428707	-0.8765952481	 0.719904906	 0.130321
H	-1.4958181245	 0.563298924	 1.6750511621	 0.138744
H	-0.6673942427	-1.2316686824	-3.0472716481	 0.092319
H	-1.8933500092	-0.8892199739	-1.8242574532	 0.112307
H	-0.1403522138	 1.0711131989	-2.830706079	 0.289549
H	 1.7823517849	-0.3694305374	-2.5903824084	 0.083684
H	 2.288177901	-0.3996108396	-0.8890871734	 0.132903
H	 1.4382162109	-2.8387067282	-2.5751096259	 0.10501
H	 2.463915445	-2.8809736855	-1.1338063237	 0.106429
H	 0.4819650777	-2.526400602	 0.3234427079	 0.113817
H	-0.5242963557	-3.0028876566	-1.0583715942	 0.101706
