23
gdb 98284	2.46355	1.03328	0.84047	2.3964	86.29	-0.235	-0.0059	0.2292	1506.7404	0.203285	-388.307739	-388.297015	-388.296071	-388.34458	38.585	
C	-0.0311121318	 1.3674485802	-0.5413763159	-0.376818
C	-0.2217719103	-0.1428720177	-0.4378417572	-0.291648
C	-1.4765533788	-0.5563193934	 0.3149791529	 0.398113
O	-2.2161530978	 0.2548918879	 0.8262642966	-0.324602
C	-1.7893119779	-2.0583731729	 0.3770461618	-0.102806
C	-2.2107018663	-2.4630382775	 1.7963582663	-0.393727
C	-2.8896476199	-2.3515157973	-0.6369320748	 0.052571
C	-2.571333885	-2.6301325207	-2.0852632172	-0.277648
C	-3.0676037989	-3.7408732511	-1.191858601	-0.281414
H	 0.8912436232	 1.6072776947	-1.077856231	 0.107853
H	-0.86901992	 1.8305275221	-1.0690713099	 0.13003
H	 0.0157024744	 1.8222617123	 0.4512727281	 0.131922
H	-0.2585480717	-0.6139916852	-1.4300299972	 0.124269
H	 0.6318531829	-0.6194247104	 0.066371367	 0.120816
H	-0.8935487212	-2.6195808602	 0.0814743168	 0.066689
H	-3.0527150119	-1.8483859654	 2.1241360382	 0.139589
H	-2.5093080584	-3.5148131482	 1.8215895398	 0.113447
H	-1.3936536509	-2.3200543046	 2.5108422991	 0.110703
H	-3.7992746312	-1.7874840582	-0.4491343122	 0.100544
H	-3.2379282197	-2.2385356704	-2.8454919552	 0.116036
H	-1.5282323438	-2.6577121251	-2.3845127085	 0.109557
H	-2.3541937327	-4.5014760677	-0.8907079497	 0.111446
H	-4.0755266424	-4.1128430714	-1.3389895068	 0.115076
