15
gdb 27305	3.25535	1.40104	0.98538	5.8227	70.75	-0.2327	-0.0171	0.2156	1130.0427	0.114154	-454.027953	-454.020059	-454.019114	-454.060364	29.697	
C	-0.0291490996	 1.5061187012	 0.005381772	-0.472948
C	-0.0413768932	 0.0085146112	-0.0012264235	 0.144502
C	-1.158483257	-0.7251724898	-0.154408898	-0.081357
N	-1.0957026124	-2.1082962095	-0.1502058059	-0.357174
C	 0.1131572911	-2.7052810855	 0.0107496243	 0.51063
O	 0.0376459439	-4.0461428137	-0.0041061715	-0.409175
N	 1.2339730816	-2.096275542	 0.1640906902	-0.42311
C	 1.2568169769	-0.6908051557	 0.1716307796	 0.321442
O	 2.2960110259	-0.0746927021	 0.3137386069	-0.360759
H	 0.6226504068	 1.8859383418	-0.7879338105	 0.14644
H	-1.0318471517	 1.9218981036	-0.1284452055	 0.106771
H	 0.3890605745	 1.8801893278	 0.9453906194	 0.146446
H	-2.1480857045	-0.3046066307	-0.2864756404	 0.132758
H	-1.9182623809	-2.6777059267	-0.2645564736	 0.277802
H	 0.9459736085	-4.3580618501	 0.1171799565	 0.31773
