18
gdb 82012	2.45379	1.44904	1.29166	2.8744	76.76	-0.2416	0.0264	0.268	1069.7454	0.148963	-398.100183	-398.091459	-398.090515	-398.133107	33.518	
N	-0.0068984997	 1.4784531402	 0.1756554213	-0.507571
C	-0.0583041258	 0.0556884733	-0.0070775215	-0.014102
C	-1.4281192697	-0.6173453105	 0.020532164	-0.026171
C	-2.2537437686	-0.2746197877	-1.1866454457	-0.303761
C	-1.1679968786	-1.3026977476	-1.3234050598	-0.0725
C	 0.1949795658	-0.6046108996	-1.4646841828	 0.089279
N	 0.2811435906	 0.3778645739	-2.5405945148	-0.541013
C	 1.3172558557	-1.5451235546	-1.4525271875	 0.217539
N	 2.2306051576	-2.2565650527	-1.4502488331	-0.34836
H	 0.9502740291	 1.8100471327	 0.2353132695	 0.231174
H	-0.4453942914	 1.9564143015	-0.6049272368	 0.240947
H	 0.6155341513	-0.4187265134	 0.7092417895	 0.103969
H	-1.8783125966	-1.0368793575	 0.9113921118	 0.09687
H	-3.2603232657	-0.679459571	-1.1746305872	 0.11978
H	-2.1609428463	 0.6816203793	-1.6891406194	 0.127133
H	-1.3510177214	-2.329227034	-1.6119596615	 0.105405
H	 1.2100880093	 0.7899610512	-2.5632455266	 0.238272
H	 0.1405487345	-0.0752968734	-3.4398179795	 0.243112
