13
gdb 449	7.16888	3.44429	2.46252	3.7977	49.83	-0.237	0.0377	0.2747	521.6537	0.110762	-286.542391	-286.536964	-286.53602	-286.571234	19.794	
O	-0.0267756924	 0.0219404837	-0.4027316705	-0.377563
C	-0.0530583136	 1.2067722571	-0.1543589383	 0.404087
C	-1.2525667849	 2.0367600317	 0.3196244069	-0.320292
C	-0.7937804614	 3.4961718402	 0.1711317315	-0.208847
C	 0.7484074982	 3.4120933852	 0.256246592	-0.159921
N	 1.011467833	 2.0687848588	-0.2281518223	-0.293342
H	-2.1455406542	 1.7827386017	-0.2535947145	 0.13058
H	-1.4484924417	 1.769151206	 1.3646120997	 0.128997
H	-1.0815883185	 3.8801699654	-0.8119953268	 0.117859
H	-1.2092212442	 4.1671651277	 0.9253657755	 0.109433
H	 1.2412702209	 4.1662774566	-0.3652837953	 0.113476
H	 1.1012806306	 3.5485697094	 1.2892404476	 0.105779
H	 1.9393140882	 1.7057937765	-0.3788854156	 0.249756
