16
gdb 32458	3.24325	1.2423	0.90659	1.002	68.59	-0.1816	0.0406	0.2222	1230.5681	0.123175	-475.021621	-475.012358	-475.011414	-475.055518	33.326	
C	-0.0860064621	 1.3525885062	 0.0326543045	-0.251126
O	-0.081515145	-0.0611381069	-0.0451042523	-0.26769
C	 0.6243287116	-0.5740640279	-1.0803966797	 0.304991
C	 1.3362431965	 0.0356718517	-2.0699599986	-0.176668
O	 1.8961032576	-0.9210206787	-2.8808655568	-0.182403
C	 1.5116831743	-2.1306479063	-2.3846310346	 0.320739
O	 2.0054835529	-3.240778577	-2.9742984585	-0.427695
C	 0.7287402401	-1.9943710565	-1.2822505127	-0.009264
N	 0.0742798213	-2.9798834296	-0.5269840221	-0.625168
H	 0.9337458142	 1.7440773481	 0.1487958581	 0.122812
H	-0.5354306153	 1.7943090891	-0.8668521936	 0.123815
H	-0.6818658122	 1.6202748747	 0.9063806811	 0.134944
H	 1.5382311534	 1.0584680043	-2.3297018437	 0.130387
H	 1.6564087323	-3.3165117717	-3.8713668932	 0.305576
H	 0.5491692102	-3.8723099392	-0.5841848004	 0.24749
H	-0.0109942798	-2.7040563303	 0.4438262527	 0.249261
