13
gdb 46246	2.95085	1.37257	1.07657	3.6635	65.49	-0.278	-0.0282	0.2497	1075.7703	0.087024	-456.514578	-456.506753	-456.505809	-456.547336	28.358	
O	-0.1303797581	 0.0738067997	-0.2104218621	-0.3186
C	-0.0365205077	 1.2313069573	 0.0192715096	 0.422687
O	-0.9957215529	 2.089873575	 0.5219263065	-0.245905
C	-0.0824054596	 3.2320092045	 0.5630193975	-0.158589
C	 0.9932204051	 2.3532754797	-0.069237854	 0.225564
O	 2.3461112996	 2.2791845895	 0.268087303	-0.246834
C	 2.0189648387	 2.6240032717	-1.0969526894	-0.279239
C	 2.3431591443	 1.678703871	-2.1254463802	 0.357676
C	 2.6242070735	 0.9174869311	-3.0107925153	-0.389105
H	-0.4636465661	 4.0622390254	-0.0342554765	 0.137759
H	 0.119723543	 3.5413788895	 1.5905841588	 0.144968
H	 2.2061682209	 3.6704622306	-1.3355479709	 0.134432
H	 2.8617337591	 0.2284299452	-3.784065367	 0.215186
