19
gdb 126571	4.65964	0.80817	0.72424	1.6698	78.58	-0.2741	-0.0135	0.2606	1616.6369	0.158678	-419.236949	-419.227528	-419.226583	-419.272439	32.934	
C	 0.089861456	 1.4859608961	 0.0628639869	-0.382211
C	 0.004116971	-0.0414816725	 0.0470263202	-0.165692
C	-1.4453525575	-0.5459390819	-0.0743727439	-0.298488
C	-1.5393260468	-2.0349202254	-0.033487775	 0.351367
N	-1.9731423707	-2.7416156785	-1.0436972225	-0.180014
O	-1.8816404253	-4.064686967	-0.5799696996	-0.196356
C	-1.3983256189	-3.9986500913	 0.6672652828	 0.410118
C	-1.1997736502	-5.2710332549	 1.4092738808	-0.495689
N	-1.165660279	-2.7846808406	 1.0656778192	-0.344647
H	 1.1278818752	 1.8215863227	 0.146775563	 0.115643
H	-0.3272748161	 1.9181158143	-0.8534650993	 0.117153
H	-0.4655231503	 1.9051886906	 0.9092356173	 0.116799
H	 0.5906786375	-0.4401132177	-0.789380342	 0.106513
H	 0.445353673	-0.4537780817	 0.9609314907	 0.121095
H	-2.039713992	-0.1391354307	 0.7531503311	 0.121598
H	-1.8973243755	-0.1950037522	-1.0069103273	 0.125135
H	-0.504069006	-5.9247394481	 0.8746729039	 0.157692
H	-0.8009909794	-5.050911251	 2.3991757317	 0.162051
H	-2.1467985952	-5.80954322	 1.5112940619	 0.157932
