12
gdb 4951	3.33548	2.52352	1.43662	4.5182	60.3	-0.2207	-0.0498	0.1709	781.6267	0.085862	-414.702156	-414.695793	-414.694848	-414.732776	23.908	
N	-0.1041139686	 1.2291696444	-0.4294158754	-0.510004
C	-0.0315598931	 0.0188146167	-0.0436145718	 0.243517
N	-1.1550815941	-0.6958334493	 0.3105553273	-0.346323
C	-1.0967634093	-2.0105648241	 0.7319251947	-0.060293
C	 0.0731624506	-2.6436907822	 0.8110064233	 0.001855
O	 1.2614750762	-2.0233895372	 0.4804425726	-0.212467
C	 1.2867528472	-0.7312750692	 0.0576188148	 0.386499
O	 2.3296952908	-0.2131469476	-0.2245344867	-0.314773
H	 0.837880864	 1.5605819087	-0.6392467748	 0.247945
H	-2.0349674947	-0.2070247467	 0.2470347907	 0.271274
H	-2.0289223041	-2.491542329	 0.98938587	 0.144821
H	 0.2151872651	-3.6640773445	 1.1274434654	 0.14795
