20
gdb 78934	2.61444	1.97341	1.50533	1.6962	81.17	-0.2102	0.0824	0.2926	968.0941	0.171518	-365.927213	-365.919619	-365.918674	-365.958749	30.877	
C	-0.1275204577	 1.590513947	-0.0002391354	-0.418646
C	 0.0047658182	 0.0826688328	-0.062991959	 0.062962
C	 0.712778227	-0.6395204902	-1.231459363	-0.155988
C	 1.1659213968	-1.7044637299	-0.1805354057	-0.003262
C	 2.6594629008	-1.3873955691	-0.4039169142	-0.179897
C	 2.3489274457	-0.1167691089	 0.3339093321	-0.07576
N	 1.0208031018	-0.5714031691	 0.8570770947	-0.173203
C	 2.1941477171	-0.1673878598	-1.1905052425	 0.354479
C	 2.9459556132	 0.6870892314	-2.1637874703	-0.520645
H	 0.8273561717	 2.0846741121	-0.2027678288	 0.120474
H	-0.8559064588	 1.9462082766	-0.7368149535	 0.115161
H	-0.468767449	 1.9048007627	 0.9916376315	 0.125495
H	-0.95879086	-0.3978600988	 0.1472012746	 0.075156
H	 0.2520626473	-0.8597377219	-2.1953962808	 0.059501
H	 0.6888439991	-2.6616410304	 0.0208191454	 0.075065
H	 3.5563026767	-1.9898024229	-0.4546445665	 0.090756
H	 2.9960342048	 0.5709840456	 0.8637004971	 0.085988
H	 2.9977306525	 0.2245094289	-3.1561634305	 0.120018
H	 2.4771915416	 1.6713775574	-2.2809479312	 0.121558
H	 3.9753416011	 0.8500974166	-1.8249962839	 0.120787
