23
gdb 111851	2.24389	1.4064	1.11849	1.5018	85.59	-0.242	0.0825	0.3244	1250.1171	0.206207	-388.292973	-388.283601	-388.282657	-388.326896	35.681	
C	-0.0246075024	 1.5341755439	-0.2475716657	-0.372164
C	-0.0033552833	 0.0889224279	 0.2668985968	-0.220484
C	-1.3551478351	-0.5893082609	 0.130048627	-0.039801
C	-1.8547915181	-1.2732580312	-1.1276834152	-0.121143
C	-0.8310537395	-1.7409677416	-2.1435380397	-0.098465
O	 0.1693068621	-2.4466845494	-1.4103719505	-0.254447
C	-0.4124806129	-2.9698791873	-0.2204866223	-0.135469
C	-1.6006507877	-2.0836375514	 0.1293363069	 0.278711
C	-2.6983696694	-2.6865904312	 0.9734344473	-0.486303
H	 0.9517424315	 2.0129839122	-0.1227471504	 0.109703
H	-0.2832146745	 1.5719218715	-1.3111602881	 0.115801
H	-0.7631283458	 2.1384861564	 0.2915909705	 0.109266
H	 0.7620062587	-0.4818732414	-0.2645355103	 0.125513
H	 0.2853382271	 0.0884617925	 1.3264748824	 0.090753
H	-2.1454070385	-0.043528726	 0.6455962933	 0.074848
H	-2.8632652049	-1.0778118207	-1.4767194894	 0.081714
H	-1.3138324966	-2.3960240156	-2.8870859606	 0.091617
H	-0.3220362904	-0.9349635171	-2.6843353247	 0.106783
H	-0.7644056232	-4.003962965	-0.374127423	 0.086997
H	 0.3744817093	-2.9913827395	 0.5424882359	 0.104024
H	-2.3467978626	-2.9102704564	 1.9878798812	 0.119283
H	-3.5461005564	-2.0009214412	 1.0652482404	 0.117656
H	-3.0690796773	-3.6224140186	 0.5383788582	 0.115607
