20
gdb 73538	2.50714	1.93662	1.57321	1.2582	78.12	-0.2306	0.0638	0.2944	954.5324	0.17243	-403.042429	-403.034821	-403.033877	-403.074393	30.847	
C	-0.1126245838	 1.5109931092	-0.095907481	-0.485214
C	-0.021089932	-0.0051139387	-0.0072670118	 0.358864
C	-1.4205614916	-0.6182224381	 0.2206401185	-0.371855
C	-1.3558881506	-0.9537493269	 1.7698820971	-0.090779
O	 0.0220434898	-0.8542091396	 2.2356738826	-0.322313
C	 0.7445290086	-0.7621632258	 1.052374312	 0.362264
C	 2.0480444328	-0.185542824	 0.4625989567	-0.255008
N	 1.2289173193	-0.6242881453	-0.7925629456	-0.210578
C	 0.961500781	-1.8968967482	 0.0121756901	-0.239606
H	 0.8475676539	 2.0104470028	-0.2255345065	 0.125475
H	-0.7365884484	 1.7828066494	-0.9541048753	 0.12575
H	-0.5909843787	 1.9221754632	 0.8006698893	 0.125873
H	-2.2182105688	 0.0974530815	 0.011983627	 0.106908
H	-1.6343407999	-1.5146647651	-0.3603714302	 0.124133
H	-1.9505392207	-0.2535014182	 2.363326484	 0.115488
H	-1.7202422583	-1.9676867552	 1.9655597098	 0.111128
H	 2.2424576584	 0.8816892441	 0.5389048884	 0.111408
H	 2.9657901197	-0.7657829191	 0.5742035757	 0.108242
H	 1.8476006235	-2.524242078	 0.127798624	 0.098678
H	 0.1172737859	-2.483584218	-0.3456423349	 0.101143
