14
gdb 4762	4.60011	1.55053	1.17029	1.997	62.43	-0.181	0.0514	0.2324	970.816	0.106211	-415.868926	-415.860765	-415.859821	-415.901953	28.515	
C	-0.0046830644	 1.426094365	 0.0496816847	-0.320178
N	-0.0215684126	-0.0241694883	 0.0321868541	-0.370361
C	 0.5030368868	-0.6549805459	 0.9881146624	 0.508407
N	 0.5775651854	-2.0235775088	 1.1540413023	-0.370669
C	 1.4149954248	-2.3114606724	 2.2589198536	-0.222062
C	 1.6927521323	-1.1359741022	 2.8248587047	 0.386176
O	 2.3224947029	-0.8128842814	 3.9614914341	-0.420236
O	 1.1375786814	-0.0985452544	 2.105623614	-0.258789
H	 0.8981907418	 1.8495313904	 0.5113198774	 0.105788
H	-0.0695217403	 1.7963837073	-0.9777582812	 0.117856
H	-0.8709254063	 1.828017823	 0.5940389764	 0.116481
H	 0.4903941115	-2.617411321	 0.3469796208	 0.268587
H	 1.6494616616	-3.3116348151	 2.5727861975	 0.145606
H	 2.6170665052	 0.1036281537	 3.8947741892	 0.313394
