20
gdb 32589	2.86988	1.19327	0.90994	1.0744	83.49	-0.1753	0.0646	0.2399	1343.8628	0.170177	-403.191236	-403.181377	-403.180433	-403.226221	36.046	
C	-0.0320260099	 1.5886529284	-0.0099279238	-0.373392
C	-0.0202027505	 0.0574344181	-0.0029410685	-0.151329
N	-1.3509265837	-0.5259340954	 0.0072508137	-0.040343
C	-2.0810785993	-0.9351247569	-1.1006422089	-0.213688
C	-3.3154094631	-1.3642682093	-0.6846173069	 0.2941
C	-4.4109337518	-1.9051135306	-1.552014468	-0.495916
C	-3.3555924156	-1.2050229007	 0.7401323604	-0.417166
C	-2.1377840319	-0.6884319674	 1.111319168	 0.381754
O	-1.6107288751	-0.3273182805	 2.3139840328	-0.447017
H	 0.9914897453	 1.9761592716	-0.0391080116	 0.113814
H	-0.5709246449	 1.9693334684	-0.8825089093	 0.125571
H	-0.5190013244	 1.9716360173	 0.8908252836	 0.137079
H	 0.4960835477	-0.3267022718	-0.8878726305	 0.113702
H	 0.5201486715	-0.3096427719	 0.874452825	 0.127956
H	-1.6438429324	-0.8910160974	-2.0856299707	 0.106052
H	-4.6797981504	-2.9327492617	-1.2782897514	 0.1188
H	-5.3264533486	-1.3059797897	-1.4742319317	 0.118746
H	-4.1110013252	-1.91273793	-2.604263501	 0.114812
H	-4.1755890637	-1.4476547528	 1.3997482952	 0.08018
H	-2.2488272243	-0.5509329078	 2.9975789139	 0.306286
