19
gdb 50032	3.50337	1.03084	0.95489	3.4284	84.59	-0.2314	-0.0207	0.2108	1290.9801	0.159364	-385.903229	-385.894936	-385.893992	-385.936622	31.454	
O	-0.0763949332	 0.0064865544	-0.3129133538	-0.273116
C	 0.016630395	 1.1706215985	-0.0073694749	 0.165178
C	 1.2795588188	 1.9358760391	 0.0256087517	-0.15614
C	 1.2239740772	 3.4351496237	-0.2293789747	-0.350007
C	 1.520194863	 2.9511410129	 1.1563105283	 0.324781
C	 0.5533672171	 3.1340097663	 2.3414269566	-0.30748
C	 1.422633272	 3.7451217858	 3.4760705141	-0.266056
C	 2.8378173415	 3.5183094822	 3.0003969451	-0.079937
C	 2.882411004	 3.092602411	 1.7387281813	-0.11731
H	-0.886317481	 1.7625290868	 0.2743361563	 0.063205
H	 2.1438404842	 1.3854180538	-0.3311673432	 0.103589
H	 2.0231279336	 3.8651845738	-0.8231647416	 0.125183
H	 0.2431087999	 3.8642029959	-0.4147758544	 0.122208
H	-0.3059674667	 3.7601713831	 2.0887604041	 0.105937
H	 0.1642224414	 2.163300032	 2.6628581586	 0.119752
H	 1.2279139815	 4.8179858186	 3.609403727	 0.112043
H	 1.2213341978	 3.2763896658	 4.4455217842	 0.110609
H	 3.7033830233	 3.7248749183	 3.6193439574	 0.098932
H	 3.7799385405	 2.8928182879	 1.1638826579	 0.098631
