19
gdb 39233	2.90487	1.60762	1.19155	1.6064	73.39	-0.2362	0.0697	0.3059	1048.6672	0.161202	-422.980143	-422.972824	-422.971879	-423.011763	29.671	
C	-0.0273021975	 1.5350293163	 0.0701970496	-0.334912
C	 1.2707142511	 0.747401574	-0.0538211342	-0.051631
C	 2.2639452125	 0.7222705954	 1.1063928133	-0.291238
C	 2.5521058622	-0.6924407997	 1.5781747581	 0.071693
O	 2.4770238263	-0.9431369886	 2.9875182004	-0.260949
C	 1.4519330963	-1.481148051	 2.1428130788	 0.047559
C	 0.0731893058	-0.8521466806	 2.2348485446	-0.125198
O	-0.5669659143	-0.816180286	 0.9706360056	-0.25225
C	-0.0645688848	 0.0333737183	-0.026531843	 0.137754
H	-0.2148432142	 1.9787558238	 1.0434348438	 0.118072
H	-0.3936852217	 2.1254049942	-0.7630011625	 0.113775
H	 1.7390671464	 0.7479093953	-1.0346168507	 0.091739
H	 3.1898512654	 1.2235573714	 0.8062990373	 0.106411
H	 1.879503186	 1.2849927183	 1.9608533301	 0.121145
H	 3.3592222071	-1.2258744482	 1.0763474795	 0.093673
H	 1.4721237674	-2.5656431659	 2.038339842	 0.095956
H	-0.5862837423	-1.4503097755	 2.8703544341	 0.113211
H	 0.153114433	 0.1422435807	 2.6919742407	 0.103764
H	-0.3874116349	-0.367185972	-0.9826931476	 0.101426
