16
gdb 22804	2.85805	1.44849	1.00525	4.1896	70.4	-0.2521	-0.052	0.2001	1133.5698	0.124842	-475.013344	-475.005331	-475.004386	-475.04662	29.75	
O	 0.0138694698	 1.3246339099	 0.1464380925	-0.341875
N	 0.0226386491	-0.0454420833	 0.0596722624	-0.169581
C	-1.1238370358	-0.6207368669	 0.0231997137	 0.212327
C	-1.0976024122	-2.1264325711	-0.0811641183	-0.28526
C	-2.1737642147	-2.5793607245	-1.0697452545	-0.233767
C	-3.5172876405	-2.0574467052	-0.5900490273	-0.057962
O	-3.5358872647	-0.6370068551	-0.3740670219	-0.236168
C	-2.4562216401	 0.0843532584	 0.0346664783	 0.376682
O	-2.6170308329	 1.2323857314	 0.3428448034	-0.30215
H	 0.9558660913	 1.5329685219	 0.1269894652	 0.314594
H	-0.0943416964	-2.4450908099	-0.3713521664	 0.127068
H	-1.3084247011	-2.5690462195	 0.90303868	 0.118916
H	-1.9554692992	-2.1939824325	-2.0722836846	 0.12135
H	-2.2166002781	-3.6712229935	-1.1365364496	 0.113732
H	-4.3126039968	-2.244549861	-1.3158540767	 0.126204
H	-3.7996031976	-2.5461510991	 0.3522152536	 0.11589
