20
gdb 26409	4.20556	0.89618	0.81901	1.7166	82.07	-0.1858	0.0306	0.2164	1463.5622	0.170917	-403.171808	-403.162681	-403.161737	-403.205903	34.58	
C	-0.007814666	 1.5698744487	 0.0698594293	-0.396685
C	-0.0093834567	 0.0415742334	 0.0008373502	 0.060488
C	 0.6711183791	-0.5816011761	 1.2313865209	-0.3869
N	-1.382463405	-0.4193232813	-0.2024415818	-0.399337
C	-1.6242952179	-1.7422354229	-0.5610320277	 0.281322
C	-0.7667751959	-2.6690228273	-1.0877059717	-0.097179
O	-1.4426093671	-3.8279417917	-1.3814208017	-0.152831
C	-2.7298872356	-3.6326063032	-1.0256195832	 0.018084
C	-2.9117767732	-2.3862728613	-0.5196364706	-0.293454
H	 1.0114092281	 1.9536733005	 0.1717387603	 0.116921
H	-0.4586017929	 2.0003459305	-0.8280304698	 0.124958
H	-0.5792544674	 1.9188799713	 0.939180291	 0.1093
H	 0.5472342218	-0.2591519859	-0.8965730409	 0.091305
H	 1.7237459786	-0.2854192524	 1.2899692164	 0.111793
H	 0.1768611318	-0.2495365349	 2.1520858791	 0.107037
H	 0.623402288	-1.673048931	 1.1948733055	 0.12824
H	-2.0161318006	-0.0836923526	 0.5110565979	 0.22371
H	 0.2833079838	-2.6704193233	-1.3188384018	 0.121337
H	-3.3969747534	-4.4628521235	-1.1912850349	 0.131122
H	-3.8380066895	-1.9590389171	-0.1669205466	 0.10077
