18
gdb 65397	3.35415	1.02199	0.91194	3.9787	74.01	-0.248	-0.0288	0.2192	1304.1422	0.145591	-439.045974	-439.036914	-439.03597	-439.080113	32.839	
C	-0.0617716965	 1.7537812588	 0.3907169879	-0.458879
C	-0.0338773022	 0.2835103308	 0.0252845143	 0.268859
N	 0.8374792972	-0.1228752253	-1.0651767842	-0.373804
C	 1.1570189997	-0.6006401964	 0.3013429034	-0.152933
C	 2.4139808429	-0.0806893482	 0.9049963104	 0.166359
O	 2.9742748981	-0.6065933859	 1.8344395358	-0.259441
C	-1.3751691853	-0.3966258866	 0.137707142	 0.011409
C	-2.2822890926	-0.4898466315	-1.0148329542	-0.179878
O	-1.5238826532	-1.624040457	-0.57042298	-0.235235
H	 0.9111492166	 2.2193741032	 0.2286118272	 0.138693
H	-0.7946939355	 2.2817873136	-0.2288017544	 0.126588
H	-0.343678136	 1.8920717961	 1.439874627	 0.129283
H	 0.4060450921	-0.8975917273	-1.5692706179	 0.250561
H	 0.9322538571	-1.6335970583	 0.555338849	 0.118127
H	 2.8108772587	 0.8390404217	 0.4229478641	 0.085014
H	-1.8141264249	-0.3944856429	 1.1361842763	 0.109051
H	-3.3563109248	-0.5612858859	-0.8569938295	 0.128875
H	-1.9733163313	-0.0744296789	-1.9723903572	 0.127351
