18
gdb 9616	3.12296	1.57198	1.27754	1.913	75.5	-0.2371	0.0525	0.2896	1029.7831	0.150458	-347.74779	-347.738671	-347.737726	-347.781135	33.514	
C	-0.2754887914	 1.2751349956	 0.0458166291	-0.246261
O	 0.3340683591	 0.0046260453	-0.0776187235	-0.270728
C	 0.7964630693	-0.5431596235	 1.1190085247	 0.438349
C	 2.0559559563	 0.0879154151	 1.6728367983	-0.455884
C	-0.2326607276	-1.1243085246	 2.0500549383	-0.349341
C	 0.64663488	-2.0528125451	 1.2077381947	-0.286224
C	 0.0760569527	-2.8091806678	 0.1337894079	 0.354636
C	-0.3875398523	-3.4744825825	-0.7542526253	-0.454497
H	 0.4395236026	 2.0542790264	 0.3448802861	 0.108965
H	-0.6734907527	 1.527688235	-0.9394953106	 0.131068
H	-1.100132811	 1.2616851086	 0.772413127	 0.107881
H	 1.8829972785	 1.1261316066	 1.9756857823	 0.121147
H	 2.4100963587	-0.4561024662	 2.552800451	 0.120029
H	 2.8476030343	 0.0788568394	 0.9171381616	 0.132135
H	-0.0606349994	-1.0974776246	 3.1205592989	 0.115375
H	-1.2696006902	-1.0541020993	 1.7441347018	 0.130552
H	 1.4446348705	-2.559692404	 1.7437456696	 0.112178
H	-0.7960003575	-4.0481731843	-1.548325592	 0.19062
