21
gdb 98459	2.35229	1.20471	0.96653	1.5437	78.85	-0.2442	-0.0214	0.2228	1348.2989	0.179225	-424.235907	-424.225497	-424.224553	-424.271986	37.18	
C	-2.1237285075	 1.9440978503	-0.2924533648	-0.381502
C	-1.5499516554	 0.5668748941	-0.6147460155	-0.282367
C	-2.0483361698	-0.5181464491	 0.3245118663	 0.318901
O	-2.7340229989	-0.2791395994	 1.2946842334	-0.318714
C	-1.6350912164	-1.9493589334	 0.0327383671	 0.320191
C	-1.4972229723	-2.8632393157	 1.2331136754	-0.254373
C	-0.3048991328	-2.4903184638	 2.1224781225	-0.388931
C	-1.9840706159	-2.5025716005	-1.2946536201	-0.227499
O	-0.6510401677	-2.1043577466	-1.0049260146	-0.26554
H	-1.7101618583	 2.6997919859	-0.9658533877	 0.110484
H	-3.2124805783	 1.9507046967	-0.3935942105	 0.126671
H	-1.8932633982	 2.230751255	 0.7364384668	 0.133347
H	-1.7591537903	 0.2740973402	-1.6506600985	 0.124647
H	-0.4534573418	 0.5616029441	-0.5513900702	 0.139715
H	-2.4266680927	-2.8046357782	 1.8073850412	 0.126322
H	-1.3895109589	-3.8924014344	 0.8755137321	 0.099668
H	-0.4247521498	-1.4863078666	 2.5398603779	 0.131697
H	-0.2133993419	-3.1898397677	 2.9581085627	 0.116387
H	 0.6286118968	-2.5189295155	 1.5521599589	 0.12761
H	-2.1515225464	-3.5756654933	-1.3771631898	 0.124922
H	-2.5112408735	-1.8935330322	-2.0277994228	 0.118366
