16
gdb 9499	3.01539	1.70694	1.50838	2.8935	65.95	-0.2461	0.0145	0.2606	906.5949	0.130652	-379.915896	-379.907779	-379.906835	-379.948058	30.395	
N	 0.4149532438	 1.1368405166	-0.4799744966	-0.507279
C	 0.0858493534	-0.0878621942	 0.1858270285	 0.027357
C	-0.0595792171	-0.0594439749	 1.7280954369	-0.233136
C	-1.2317005413	-1.069513669	 1.6144238096	-0.273411
C	-1.3919374787	-0.6715796273	 0.1184217397	 0.229836
O	-2.2611092669	 0.4268255568	-0.0786231567	-0.465205
C	-1.6620364689	-1.7415708067	-0.8430600598	 0.216943
N	-1.8598790267	-2.5936226923	-1.6002946054	-0.339077
H	 0.5411702511	 0.9915004191	-1.4767317285	 0.237771
H	-0.344295253	 1.8025044861	-0.3693472059	 0.244076
H	 0.784447034	-0.8713190366	-0.119206553	 0.10212
H	 0.8123063597	-0.3557411201	 2.3126087444	 0.112184
H	-0.3995940805	 0.9211566195	 2.068998253	 0.117366
H	-0.9088477067	-2.1074137788	 1.7229423694	 0.12583
H	-2.1151253709	-0.9012813899	 2.2340964617	 0.10999
H	-3.1662693413	 0.1361792315	 0.0798228726	 0.294636
