20
gdb 42069	2.10509	1.89098	1.13741	2.0554	81.95	-0.2403	0.011	0.2513	1109.1336	0.173199	-403.146283	-403.138223	-403.137279	-403.178666	31.588	
C	-0.0874325609	 1.3726357254	 0.0521259525	-0.077739
C	 1.2859155778	 2.0712226717	 0.0069466307	-0.26982
C	 2.1541417838	 1.6589848742	 1.1625873113	-0.03107
C	 3.004406816	 0.6302497103	 1.1906742912	-0.037346
C	 3.3741814439	-0.3126882529	 0.0713155654	-0.25407
C	 2.4082069031	-1.5283128939	-0.1205397785	-0.147343
N	 1.5016506421	-1.3199927074	-1.2508656468	-0.226579
C	 0.4869489027	-0.5909124147	-1.1022452798	 0.104905
O	 0.0727356628	-0.0445659964	 0.0769853652	-0.205684
H	-0.6299578197	 1.6243071357	 0.9669481331	 0.11871
H	-0.700377448	 1.6732502393	-0.8107180256	 0.100525
H	 1.7613210913	 1.82484237	-0.9498057581	 0.116123
H	 1.1163727327	 3.1545617859	 0.011838369	 0.102257
H	 2.0062500573	 2.2217326737	 2.0827497103	 0.083381
H	 3.4985613951	 0.4243274444	 2.1389160259	 0.085429
H	 3.4376723093	 0.2105192386	-0.888610408	 0.1158
H	 4.3764525999	-0.7037535437	 0.2736237814	 0.102877
H	 3.0018896585	-2.4163905173	-0.35315809	 0.101093
H	 1.8663382157	-1.7198431002	 0.8120584352	 0.113841
H	-0.1626448436	-0.3674853227	-1.9545720244	 0.10471
