17
gdb 127294	4.75222	1.24348	1.00699	0.6243	76.94	-0.1984	0.0202	0.2185	1163.382	0.13849	-418.016181	-418.00844	-418.007495	-418.048885	28.552	
C	-0.0257132554	 1.3834099464	 0.0641666801	-0.317664
N	-0.07395233	-0.0583522647	-0.016543583	 0.047694
C	-0.065826197	-0.8189288772	-1.1662333209	-0.215569
C	 0.0270027608	-2.1133017499	-0.7181644156	 0.279596
O	 0.0418992799	-3.3727488465	-1.2258455326	-0.291902
C	 0.3374741304	-4.2391070104	-0.088770822	-0.093845
C	 0.1100354273	-3.4320449788	 1.2333795111	-0.368795
C	 0.0785075643	-2.0416184806	 0.6740266693	 0.277896
N	 0.0226647887	-0.7932967644	 1.1170077111	-0.362596
H	 0.9959946253	 1.7648815769	-0.0511783641	 0.135609
H	-0.6563067773	 1.8189778364	-0.7154037596	 0.13501
H	-0.4050757649	 1.6786582211	 1.0428678396	 0.156646
H	-0.1310474827	-0.3692268977	-2.1423183148	 0.130318
H	-0.3037548577	-5.1183299643	-0.1755363697	 0.120087
H	 1.3834546637	-4.5541924863	-0.1753107495	 0.116544
H	-0.8345900897	-3.7045645283	 1.7180367911	 0.125241
H	 0.9140494843	-3.6145715618	 1.9514732295	 0.125731
