23
gdb 92621	2.66434	1.40342	1.27869	1.4484	83.95	-0.2347	0.0745	0.3092	1147.8514	0.208724	-388.323187	-388.31487	-388.313926	-388.356483	33.005	
C	 0.6565711955	 1.3205256388	 0.2768335416	-0.396113
C	-0.0172558374	-0.0044840931	-0.0901533261	 0.134801
C	 0.578148673	-0.7093306499	-1.3297056107	-0.267629
C	 1.5388723855	-1.7645489761	-0.7535483345	-0.010762
C	 3.0349395755	-1.3906387665	-0.6577076327	-0.225029
C	 3.5014513958	-2.060714841	 0.6456952308	-0.2033
C	 2.321031791	-1.8274630054	 1.6048993681	-0.22607
C	 1.0571602864	-1.9473534947	 0.7169244757	 0.129297
O	 0.0767250176	-0.9473734455	 0.9808701149	-0.282992
H	 1.7389169659	 1.209838723	 0.3918095303	 0.117387
H	 0.472174859	 2.0718984944	-0.498968931	 0.108064
H	 0.2519848925	 1.6957162587	 1.221238574	 0.121869
H	-1.0873032644	 0.1902388265	-0.2356611243	 0.074874
H	-0.2204780881	-1.1932137838	-1.8994335695	 0.100929
H	 1.078981826	-0.0065178799	-2.0019797994	 0.099889
H	 1.4455009799	-2.7074608273	-1.2993635013	 0.070758
H	 3.6032703198	-1.7088613833	-1.5366600495	 0.093011
H	 3.154275524	-0.3035598709	-0.577734437	 0.099601
H	 3.6478936288	-3.1357023838	 0.4799872805	 0.096655
H	 4.4478946578	-1.6623254858	 1.0230706631	 0.094597
H	 2.3095537481	-2.5179042484	 2.4525618535	 0.093374
H	 2.3535313287	-0.8118051118	 2.0128129907	 0.107038
H	 0.5701036793	-2.9178931042	 0.8685927527	 0.069749
