13
gdb 128444	4.71922	1.05395	0.86625	1.953	62.66	-0.2917	-0.0594	0.2323	1237.8664	0.087913	-489.885521	-489.877449	-489.876504	-489.919074	27.506	
C	 0.0383743462	 1.3356109587	 0.0088913795	-0.243949
O	-0.0367201055	-0.0977643822	 0.0022315173	-0.224246
C	-1.2757788915	-0.6021214793	 0.0092633345	 0.389282
O	-2.2931311854	 0.0502444756	 0.0203014296	-0.378349
C	-1.2743823747	-2.073837249	 0.0015015959	 0.123846
C	-2.361322802	-2.900568685	 0.005617527	 0.016528
O	-1.9685414268	-4.1530855645	-0.0034861631	-0.169821
N	-0.4900090536	-4.0988374483	-0.0154805202	 0.004979
N	-0.1679418349	-2.8980835013	-0.0115462105	-0.153199
H	 1.1015627113	 1.5724552683	 0.0018963412	 0.143583
H	-0.4546169459	 1.7488713404	-0.8742651408	 0.146633
H	-0.4409256582	 1.7398901619	 0.9036637838	 0.146631
H	-3.4185047489	-2.6889974152	 0.0150868458	 0.198082
