19
gdb 109138	3.90388	0.96028	0.80654	3.9331	78.31	-0.2328	-0.0095	0.2232	1398.3341	0.158969	-423.05793	-423.048941	-423.047997	-423.092212	33.051	
O	 0.1208497927	 1.4401419992	 0.0587499169	-0.413097
C	 0.0530818277	 0.0287810752	 0.0785472559	-0.150672
C	-1.3746170085	-0.4406663132	 0.0029090042	 0.265426
C	-2.407919275	 0.4014035693	-0.0042178489	-0.134064
C	-3.8463483642	-0.0295609675	-0.1183144491	-0.361388
C	-4.0392930752	-1.5355988931	-0.25508217	 0.389019
O	-4.9924806733	-2.0136183047	-0.823647601	-0.311394
C	-2.9529237945	-2.3794471187	 0.3889979135	-0.303435
C	-1.5543012174	-1.9388400011	-0.0802234222	-0.306939
H	 1.0434527718	 1.6972251186	 0.1368469295	 0.291335
H	 0.6152105693	-0.412026525	-0.7649793459	 0.094889
H	 0.5121844836	-0.3812630994	 0.9964556278	 0.094228
H	-2.2165943891	 1.4678247126	 0.0506956655	 0.11181
H	-4.4101291321	 0.2931458054	 0.7717224947	 0.133332
H	-4.3474831058	 0.4532569705	-0.9654993941	 0.134505
H	-3.0205568741	-2.2293944435	 1.4753661378	 0.120856
H	-3.1480150991	-3.4327432496	 0.1761951519	 0.117748
H	-1.3858683716	-2.2763131012	-1.1131191457	 0.122912
H	-0.7902791153	-2.446947144	 0.5221734193	 0.104928
