15
gdb 128250	3.90066	1.2259	0.93854	3.3055	75.7	-0.2333	-0.0534	0.1798	1195.4319	0.113209	-450.108601	-450.100211	-450.099267	-450.142604	29.559	
C	-0.0837503317	 1.4605818825	-0.0378340398	-0.323675
N	 0.0562259328	 0.0156217857	-0.0368466703	-0.351107
C	 0.5953207015	-0.7180409723	-1.0310951881	 0.541765
N	 0.5903490984	-2.00769297	-0.9947671662	-0.388747
C	 1.1858726921	-2.674559057	-2.0478489965	 0.311393
N	 1.2173947852	-3.9551014242	-2.0906570371	-0.507666
C	 1.7659215991	-1.8047301526	-3.0908401702	-0.005755
N	 1.7515395482	-0.527207591	-3.1039660339	-0.070635
O	 1.115140013	 0.0816325126	-2.0032711567	-0.269587
H	 0.8741372892	 1.9420303202	-0.2478401814	 0.156493
H	-0.8136652437	 1.8080444338	-0.7784489374	 0.142191
H	-0.4175939714	 1.7707398122	 0.9534909972	 0.139081
H	-0.4017355298	-0.5354999438	 0.6705831224	 0.272822
H	 1.6954214963	-4.2647851839	-2.937880083	 0.212205
H	 2.2627422507	-2.2463886124	-3.952220269	 0.141223
