23
gdb 38307	2.70053	1.83036	1.78729	0.0712	86.58	-0.2749	0.0823	0.3572	950.0258	0.212817	-351.146929	-351.140677	-351.139733	-351.176935	29.029	
C	-0.0293811778	 1.5497913371	 0.1224283937	-0.215819
C	 1.5223571005	 1.4533184446	 0.0467052153	-0.016184
C	 1.3291066698	 0.1385560189	 0.8694496323	-0.227821
C	 0.0034364092	-0.0049410794	 0.0540621861	-0.016186
C	 0.3122603695	-0.4836745279	-1.4165380441	 0.002591
C	-0.1616550632	 0.5402376125	-2.4853180451	-0.212984
C	 0.9714610642	 1.6281997787	-2.4907656942	-0.212985
C	 1.9806636538	 1.1181510224	-1.4246272582	 0.002591
C	 1.8337470457	-0.3997778497	-1.6510366452	-0.209181
H	-0.3475332568	 1.8861822284	 1.1133134921	 0.085295
H	-0.5805574782	 2.1201468729	-0.6229773474	 0.090614
H	 2.1130000173	 2.2640562673	 0.4799066955	 0.053134
H	 2.0837113839	-0.6475411407	 0.8487878269	 0.088401
H	 1.1080418158	 0.3740835879	 1.9136476155	 0.089255
H	-0.828483244	-0.5599572393	 0.4941590118	 0.053135
H	-0.1056484891	-1.4796715743	-1.5839567744	 0.052966
H	-0.2251552483	 0.0482453855	-3.4609009035	 0.089659
H	-1.1511109634	 0.9535688804	-2.2745871346	 0.095729
H	 1.4607015452	 1.666989043	-3.469023629	 0.089654
H	 0.5997396643	 2.6346367201	-2.282958012	 0.095734
H	 2.9919772488	 1.4943548505	-1.5989917129	 0.052966
H	 2.4413248795	-1.0293343058	-1.0030113587	 0.090284
H	 2.0832788734	-0.6649010232	-2.6848974799	 0.07915
