17
gdb 97340	5.09852	0.76927	0.68818	1.7103	76.53	-0.2597	-0.0054	0.2542	1633.0141	0.134274	-455.148013	-455.138689	-455.137745	-455.183203	32.017	
C	 0.1153999505	 1.2467486313	 0.1594172107	-0.318465
N	 0.0696408179	-0.1858152773	-0.0607002313	-0.197564
C	-1.0595805676	-0.7291041193	-0.0456329757	 0.124946
O	-1.1355708554	-2.0840115361	-0.2604977781	-0.228126
C	-2.3766143596	-2.6632355078	-0.1782792022	 0.489792
O	-3.3931016369	-2.0840326974	 0.104426017	-0.374954
N	-2.2764841788	-3.9897962347	-0.5388286903	-0.122845
C	-1.4354239943	-4.9635176181	 0.1325647007	-0.221725
C	-2.9325210396	-5.0438280375	 0.2024605726	-0.219571
H	 0.5863780069	 1.7292774066	-0.7038593849	 0.134823
H	-0.8704494634	 1.7081068669	 0.3241791931	 0.106172
H	 0.749194691	 1.4581062133	 1.027513238	 0.133409
H	-2.0308109912	-0.2572718029	 0.1191202024	 0.134389
H	-0.8820453083	-5.6323971829	-0.519286726	 0.137173
H	-0.902317315	-4.6377902074	 1.0209855806	 0.143356
H	-3.4159026973	-4.766198861	 1.1348784882	 0.143646
H	-3.4648152988	-5.7761151759	-0.3965893947	 0.135543
