20
gdb 26266	3.39908	1.09216	1.00807	2.2992	88.07	-0.2465	-0.018	0.2285	1289.5132	0.172734	-366.082196	-366.073624	-366.07268	-366.115807	32.471	
C	 0.024401266	 1.5548598144	-0.0126253591	-0.383539
C	-0.00312881	 0.0164385611	 0.0407529993	-0.085535
C	 0.7959040725	-0.5112456753	 1.246277018	-0.383702
C	-1.4228846376	-0.5228353779	 0.0248218186	 0.285822
C	-2.3328266654	-0.2408919125	 1.0516292967	-0.055337
N	-3.5907005621	-0.6824358229	 1.0964463491	-0.265564
C	-4.0075815816	-1.4495810172	 0.0847762055	-0.002178
C	-3.197773347	-1.7980890138	-0.9904077993	-0.110624
C	-1.8896511807	-1.3257663848	-1.0153557197	-0.184847
H	 1.0559018235	 1.9192816764	-0.0600519032	 0.113165
H	-0.5115047441	 1.931221748	-0.8890600622	 0.118855
H	-0.4418447799	 1.9918033408	 0.8766904202	 0.120834
H	 0.4879589925	-0.3540911672	-0.8682392122	 0.075677
H	 0.3642212263	-0.1657131729	 2.1914875065	 0.12085
H	 0.8089019554	-1.6050594887	 1.2657796537	 0.118877
H	 1.8314481897	-0.1576901006	 1.2051899278	 0.113177
H	-2.0260877857	 0.3808780531	 1.8906096331	 0.100294
H	-5.0357269168	-1.7997196834	 0.139277524	 0.10579
H	-3.5825938657	-2.424004399	-1.7882478415	 0.098945
H	-1.229826359	-1.5791500378	-1.8408367554	 0.099042
