20
gdb 106414	2.88624	1.33729	1.15989	1.8023	79.66	-0.2373	0.0689	0.3062	1162.3136	0.170151	-403.051018	-403.042469	-403.041525	-403.084189	33.051	
C	-0.0389519491	 1.5525448475	-0.0785846285	-0.381425
C	-0.044239311	 0.022015291	 0.0087009855	-0.320219
C	-1.4235596845	-0.5556330964	 0.1197663166	 0.316224
C	-2.5812227599	-0.2465322093	 1.1193970922	-0.270121
C	-3.1433998206	-1.1311534888	-0.0169515972	-0.030903
O	-2.3883021642	-0.3076594451	-0.9926146493	-0.34585
C	-1.9026740921	-2.0226970253	 0.101064321	 0.397064
C	-1.4156179166	-3.2436564592	-0.5374817048	-0.340955
N	-1.6452887087	-3.1689999368	 0.9411512298	-0.398073
H	 0.9791829579	 1.9316400147	-0.2036381254	 0.113541
H	-0.6393984687	 1.8893563306	-0.9276946789	 0.142161
H	-0.4569353899	 2.001723315	 0.8277556191	 0.120386
H	 0.433893148	-0.4081610935	-0.8800270928	 0.114604
H	 0.5397093856	-0.3133395696	 0.8758262169	 0.103073
H	-2.5227335558	-0.6773429674	 2.1222338633	 0.103555
H	-2.9336217596	 0.7857115921	 1.108548893	 0.104668
H	-4.1743687961	-1.3837602164	-0.2593694503	 0.098627
H	-2.0963053775	-3.9055285226	-1.0651771846	 0.126482
H	-0.3907388015	-3.2651296613	-0.8998448607	 0.115673
H	-0.7557626357	-3.0736371695	 1.426943805	 0.231488
