21
gdb 100459	3.45546	0.60906	0.5741	3.0687	85.29	-0.2499	0.0278	0.2777	2021.5489	0.179798	-424.199054	-424.187894	-424.18695	-424.237052	39.529	
C	-0.0294934899	 1.5313200853	-0.0216860061	-0.374654
C	 0.0266722399	-0.0094657855	 0.0101246156	-0.129313
C	 0.6692833568	-0.5749083127	-1.2720091823	-0.375489
C	 0.7299938779	-0.4799931684	 1.2041071149	 0.143494
C	 1.3079552574	-0.8560251877	 2.1934134021	-0.022921
C	 2.0626816055	-1.3197964102	 3.3525313295	-0.068292
O	 2.1708118613	-2.7515332353	 3.4033261974	-0.431465
C	 3.4791793231	-0.7165231241	 3.4008511301	-0.051449
O	 4.194458994	-1.2419633334	 4.4932029401	-0.41938
H	 0.9787047956	 1.9526709193	-0.080870321	 0.125497
H	-0.5953526412	 1.8692563664	-0.8954798714	 0.115368
H	-0.5103826784	 1.9266859323	 0.8766351	 0.126852
H	-1.0061143977	-0.3815089227	 0.0608372224	 0.109278
H	 1.7006788074	-0.2234515065	-1.3735909055	 0.124719
H	 0.682456242	-1.6679748674	-1.2579874831	 0.122019
H	 0.1068169989	-0.2482124868	-2.1522462138	 0.115838
H	 1.5472763757	-1.0494110121	 4.2816666598	 0.121324
H	 2.3369844072	-3.0558056173	 2.5035919762	 0.286943
H	 3.9802106144	-0.9203429467	 2.4389141212	 0.080186
H	 3.4218272562	 0.3693695092	 3.5245603122	 0.115058
H	 4.012216664	-2.1912152757	 4.4830761316	 0.286388
