24
gdb 100981	2.332	1.11353	1.0532	1.8439	86.63	-0.2204	0.0769	0.2973	1368.5764	0.214063	-405.510244	-405.499092	-405.498148	-405.546272	40.688	
C	 0.353674695	 1.2570133038	-0.3298666987	-0.235178
O	 0.1482093526	-0.1107842808	-0.0683930992	-0.250816
C	-1.2140814188	-0.4926019976	 0.1030740801	 0.073356
C	-1.9770843871	-0.5026261474	-1.2271756232	-0.420167
C	-1.1768653789	-1.8575592268	 0.7881489331	 0.353381
C	-0.5253725048	-2.9686943623	-0.0136762718	-0.455584
C	-1.0455128301	-1.8640168613	 2.2756241564	-0.292658
N	-2.2826160522	-2.3072419937	 1.6436758191	-0.129007
C	-3.4846856878	-1.5154298453	 1.8521709511	-0.316631
H	 1.433253829	 1.4277840843	-0.3142697606	 0.127069
H	-0.0310115917	 1.5676415733	-1.3121800757	 0.106396
H	-0.1145425395	 1.8926771978	 0.4388236689	 0.100666
H	-1.6945691675	 0.2315879322	 0.7776950953	 0.057739
H	-2.9949233774	-0.877537564	-1.0834952592	 0.123374
H	-2.0530823321	 0.5038917319	-1.6481504038	 0.114977
H	-1.4733155518	-1.1400163143	-1.9584902425	 0.129843
H	 0.4758530316	-2.6687620976	-0.3352303823	 0.131135
H	-0.4502523881	-3.8726189574	 0.594822259	 0.118492
H	-1.1128681678	-3.217755969	-0.9034470691	 0.113268
H	-0.4586886344	-2.6301726169	 2.7771601407	 0.107405
H	-1.0476605465	-0.8965841317	 2.7784477875	 0.098468
H	-3.3206467644	-0.4324571497	 1.9670622264	 0.100137
H	-4.1790856319	-1.6722688078	 1.0200673374	 0.121466
H	-3.9749179952	-1.8714134697	 2.7645634711	 0.12287
