16
gdb 45389	2.13769	1.75228	1.25593	5.2558	74.2	-0.2629	-0.0462	0.2166	1034.58	0.124334	-400.756582	-400.748682	-400.747738	-400.789626	29.315	
O	 0.0300489839	 0.0451459683	-0.5600926078	-0.269865
C	-0.0373270626	 1.1638007994	-0.1570632673	 0.3635
C	-1.1512492647	 2.037203002	 0.4374994626	-0.353048
C	-0.1362386334	 3.1971648185	 0.6179337642	-0.082218
C	 0.6360870672	 3.1832878138	 1.9603682339	-0.220087
C	 1.7402111164	 2.2772392278	 1.3450632502	-0.278135
C	 1.0085422467	 2.3127120682	-0.0456815117	 0.07977
C	 1.7662732657	 2.6721790345	-1.213491866	 0.193717
N	 2.3641010905	 2.974259745	-2.1572201903	-0.338217
H	-1.9139829722	 2.2441005234	-0.3211788151	 0.152744
H	-1.6501843558	 1.6499373343	 1.330230113	 0.137973
H	-0.4219649902	 4.1605148939	 0.2012985393	 0.102577
H	 1.0107710444	 4.1660293969	 2.2518606785	 0.123465
H	 0.0855513494	 2.7625279426	 2.8052471597	 0.113399
H	 2.723406295	 2.7462126294	 1.298865992	 0.142429
H	 1.8529248398	 1.2756626419	 1.7643597747	 0.131997
