20
gdb 17431	2.60117	2.52891	1.82515	0.2712	77.96	-0.241	0.0902	0.3312	854.2762	0.177352	-311.829224	-311.821719	-311.820775	-311.860312	30.234	
C	-0.0084081754	 1.5944146752	 0.0339689692	-0.426603
C	 0.097059641	 0.0735683373	 0.0304946257	 0.004853
C	 1.1351798183	-0.6493236155	-0.8258470648	-0.075465
C	 2.4228312108	-0.7820507946	 0.0056945544	-0.062885
C	 2.1636607323	-0.1454416326	 1.3669448441	-0.274687
C	 0.7155384298	-0.7072361551	 1.2423034407	 0.314828
C	-0.1080348589	-1.0114228681	 2.4660413933	-0.50964
C	 1.2839880854	-1.7553415756	 0.1873259493	-0.134738
H	 0.9647861188	 2.0762688902	 0.1627220297	 0.117834
H	-0.4265348598	 1.9521797324	-0.9137621506	 0.111969
H	-0.6690616494	 1.9454817955	 0.8354112494	 0.110376
H	-0.8891386268	-0.362170886	-0.1744604279	 0.063244
H	 1.1640519062	-0.7386671658	-1.905112586	 0.076129
H	 3.3747864591	-0.966223599	-0.4760487887	 0.079539
H	 2.7135848811	-0.6700515	 2.1547245596	 0.091803
H	 2.2926384404	 0.935072523	 1.4965463474	 0.08388
H	-0.3627492578	-0.0901335439	 3.0043428294	 0.11744
H	-1.0468009362	-1.5116925677	 2.2029003386	 0.114376
H	 0.4343140886	-1.6605557341	 3.1623813509	 0.114679
H	 1.2230481926	-2.8306776957	 0.1008912865	 0.083067
