22
gdb 110585	3.05186	1.33972	1.10142	1.0145	87.26	-0.2069	0.0928	0.2997	1214.1645	0.193488	-367.125003	-367.116299	-367.115355	-367.158066	34.197	
C	-0.1259927423	 1.6166663664	 0.0648219912	-0.378918
C	-0.1141858161	 0.0895341786	 0.0163691818	-0.126158
N	 0.6740217318	-0.4603397129	 1.1197030071	-0.152582
C	 2.1535207632	-0.5236179822	 0.9130086432	-0.008361
C	 2.2909056045	-1.7321870939	 1.8835575328	-0.0979
C	 3.1464026997	-2.5352455902	 0.886142327	-0.283959
C	 2.147319031	-1.789284513	-0.0192993834	-0.11374
C	 0.98202698	-1.9284147157	 1.0468761228	 0.384437
C	-0.0607197789	-2.9998022363	 1.1721897443	-0.53059
H	 0.8804759435	 2.0255090142	-0.0751028569	 0.113243
H	-0.7639478173	 2.0271556919	-0.7240938596	 0.108372
H	-0.4975526903	 1.964380924	 1.0329178395	 0.124204
H	-1.139306714	-0.2859659413	 0.1266033054	 0.095305
H	 0.2407853111	-0.2470339938	-0.9746379461	 0.07404
H	 2.7936586186	 0.3577237877	 0.8504963887	 0.07661
H	 2.3429993423	-1.6700752165	 2.9707128273	 0.075376
H	 4.1975737684	-2.244342012	 0.7984452285	 0.093273
H	 3.0580981743	-3.6252891202	 0.9256088392	 0.093254
H	 2.0676882902	-1.8226142894	-1.1061440195	 0.073579
H	 0.4038096062	-3.9913705451	 1.1689973939	 0.125569
H	-0.6189409833	-2.884213027	 2.1069091441	 0.130992
H	-0.7739935725	-2.9614040235	 0.3419079287	 0.123954
