19
gdb 84077	2.34718	1.52502	0.998	2.3714	78.27	-0.2494	-0.0258	0.2236	1213.276	0.157331	-423.06427	-423.054852	-423.053908	-423.098365	34.758	
C	-0.3154510265	 1.5683754887	 0.0191944746	-0.391994
C	 0.0246444869	 0.0745238478	 0.0047759403	-0.149452
C	 0.8329756567	-0.4191915495	-1.1776700744	-0.179805
C	 1.8621632694	-1.208086726	-0.8455794438	 0.285317
C	 2.8695683575	-1.843119858	-1.7456282285	-0.492202
C	 1.8867990512	-1.4522174603	 0.6490001211	-0.032504
O	 3.1606420499	-1.3751542041	 1.243706673	-0.442148
C	 0.950771349	-0.3447834813	 1.1499541467	 0.355023
O	 1.0678075092	 0.1766195268	 2.2304080466	-0.324994
H	 0.5878127029	 2.1737358747	-0.1014292709	 0.126252
H	-1.0051094202	 1.8163911688	-0.7928700367	 0.116406
H	-0.7822223349	 1.8434850332	 0.968354036	 0.136424
H	-0.911664926	-0.4988893744	 0.1034384374	 0.109455
H	 0.5801452173	-0.1411223002	-2.1961696566	 0.096158
H	 2.7343730759	-1.5309875115	-2.784565624	 0.121825
H	 3.8826097818	-1.5777342947	-1.424458745	 0.150325
H	 2.8049937912	-2.9378232044	-1.7012633712	 0.129527
H	 1.4237064793	-2.4330021255	 0.8738813987	 0.092395
H	 3.0368352895	-0.8723462504	 2.0618833268	 0.293992
