17
gdb 28231	4.81297	1.16161	0.9508	2.9443	76.67	-0.1854	0.046	0.2313	1195.7588	0.138705	-418.025291	-418.017206	-418.016262	-418.058272	29.932	
N	 0.1604010504	 1.3898233344	-0.1293800532	-0.610345
C	-0.0181726713	-0.0085809787	-0.0440939633	 0.289313
C	-1.1388683321	-0.8182069715	 0.0050210451	-0.413169
C	-0.6621571722	-2.1590318412	 0.0176979792	 0.272802
C	 0.6999496026	-2.1217330612	-0.0163466475	 0.242146
C	 1.2963276924	-3.4865748152	 0.0312924303	-0.176077
O	 0.1437650744	-4.3373383104	 0.0669204451	-0.280438
C	-1.0910485969	-3.5894695675	 0.083003166	-0.18085
N	 1.106303843	-0.8169087101	-0.0540431932	-0.388838
H	 0.2435167167	 1.8254331767	 0.7852365474	 0.243568
H	-0.6238058267	 1.8239018164	-0.6011061685	 0.246805
H	-2.1592626311	-0.467673082	 0.0424822121	 0.086956
H	 1.9069762699	-3.7414944559	-0.8494755098	 0.102123
H	 1.9179912694	-3.6683545795	 0.92327358	 0.101123
H	-1.646776984	-3.8424160439	 0.9984934742	 0.102063
H	-1.7047787549	-3.9085698574	-0.7722058857	 0.103597
H	 2.0385812404	-0.4594805831	-0.1729217982	 0.259222
