14
gdb 21685	3.42591	2.04112	1.29339	2.509	61.19	-0.2055	0.0155	0.221	885.4813	0.108795	-412.025406	-412.017459	-412.016515	-412.057575	29.06	
N	-0.0241513081	 1.3926707153	 0.0802418517	-0.597835
C	 0.0270973296	 0.010021394	-0.029490536	 0.387204
N	-1.0525148783	-0.7372441509	-0.0994944655	-0.239343
O	-0.5898677513	-2.0583486048	-0.1285948188	-0.217391
C	 0.7675356695	-2.0496383283	-0.0572246321	 0.327233
N	 1.4808855713	-3.2529027924	-0.0617095998	-0.604041
C	 1.2223209193	-0.7713285013	 0.0061594473	 0.053527
N	 2.5368672513	-0.2775605488	 0.0296591962	-0.628399
H	 0.6819229177	 1.8526676221	-0.4813910083	 0.256409
H	-0.946023978	 1.760057793	-0.1199819061	 0.25766
H	 1.0819170963	-3.9193411592	 0.5928432918	 0.253462
H	 1.4832180142	-3.6921038747	-0.9785005433	 0.253541
H	 3.1968681378	-1.0431233543	 0.1193283357	 0.250462
H	 2.6798546387	 0.3636167603	 0.804017927	 0.247509
