21
gdb 90772	3.25135	1.36355	1.18854	0.8254	77.57	-0.2422	0.0842	0.3264	1139.3892	0.183068	-424.225453	-424.216865	-424.215921	-424.25847	32.894	
C	 0.3466878729	 1.5845270305	 0.0682480929	-0.408839
C	 0.1400542507	 0.0868746742	 0.08787501	 0.126659
O	 0.9825453129	-0.6407106499	-0.8503436387	-0.330138
C	 1.3276535865	-1.6254387196	 0.151246558	 0.103433
C	 0.6917262982	-0.7606093885	 1.2618582429	 0.046156
O	 1.7530492803	-0.1949079858	 2.0047150133	-0.267823
C	 2.9810588062	-0.3729253128	 1.2869268336	-0.099432
C	 2.818546595	-1.6720951941	 0.4749852413	-0.021701
C	 3.1803758118	-2.9237402319	 1.2826412166	-0.407673
H	 1.3561743329	 1.855689496	 0.3833104906	 0.130962
H	 0.1757847321	 1.9719653071	-0.9409961555	 0.12608
H	-0.3643852508	 2.0696745614	 0.7451261669	 0.120245
H	-0.9160830148	-0.1545304297	-0.1057680998	 0.069136
H	 0.8851198391	-2.6036989822	-0.0661016931	 0.069766
H	-0.0355245792	-1.1803556523	 1.9592001095	 0.082942
H	 3.1647355135	 0.4780989686	 0.6189073855	 0.100721
H	 3.786766947	-0.4176620755	 2.0253560203	 0.106181
H	 3.4032031016	-1.6303035516	-0.4491739278	 0.088778
H	 2.6207651184	-2.9593568039	 2.2235154927	 0.129088
H	 2.9571785317	-3.8373712901	 0.7223518528	 0.116984
H	 4.2461919941	-2.9340986301	 1.5300028281	 0.118475
