16
gdb 47706	2.32659	1.69781	1.05898	3.7512	66.45	-0.2667	-0.0228	0.2439	1086.7528	0.12628	-475.098024	-475.090148	-475.089204	-475.131308	28.708	
O	 0.0098702861	-0.0773937772	-0.0373438911	-0.333814
C	-0.0615440545	 1.1289962008	 0.0049943874	 0.416676
C	-1.3755088256	 1.882888596	 0.0707005299	-0.307208
C	-1.4205958329	 3.0357295651	-0.9444302966	-0.247695
C	-0.7018796827	 4.2813928387	-0.4169569983	-0.077598
O	 0.3533919288	 4.0031176748	 0.5201721573	-0.240549
C	 1.4077084121	 3.2166882347	 0.1914920389	 0.45132
O	 2.5400005643	 3.6131716057	 0.2215584375	-0.342184
N	 1.1154071363	 1.8818186005	-0.0820775439	-0.383796
H	-2.1502785721	 1.1408331028	-0.1265248649	 0.138516
H	-1.5266297885	 2.2628615765	 1.0877378981	 0.14189
H	-0.9824351414	 2.7036242032	-1.8912846773	 0.125404
H	-2.4590987505	 3.3051649535	-1.1611705039	 0.123435
H	-0.3021941008	 4.8950122761	-1.2321558873	 0.127941
H	-1.3898960582	 4.8987421951	 0.1648805878	 0.133969
H	 1.9449481497	 1.3141698435	-0.2038049236	 0.273692
