21
gdb 62849	2.66891	1.53597	1.35014	3.1181	82.06	-0.2298	-0.0032	0.2266	1068.0999	0.183054	-387.104669	-387.096364	-387.09542	-387.136934	33.549	
C	-0.1200144309	 1.5140362758	 0.0061258655	-0.459946
C	-0.0354485816	-0.0168833217	 0.0142669563	 0.334688
C	-1.4283345477	-0.5621206713	 0.3468234664	-0.470968
C	 0.764862386	-0.6239272816	-1.2021408481	-0.056554
C	 2.0692874499	-0.2602719908	-0.4340489809	-0.257451
C	 1.197114424	-0.6006802042	 0.8205841109	-0.152292
C	 1.0081631732	-2.0932032449	 0.5786504212	 0.43198
O	 1.0720031936	-3.0069160494	 1.3561044196	-0.343249
C	 0.708851405	-2.1410207648	-0.9415243176	-0.344498
H	 0.8181024247	 2.0140485502	-0.2390036997	 0.117584
H	-0.8649604259	 1.8381870474	-0.7298523221	 0.117476
H	-0.4472459972	 1.8834127012	 0.9840194053	 0.119376
H	-2.1453912662	-0.2853773706	-0.4345871987	 0.115878
H	-1.462261105	-1.6471143863	 0.4637883284	 0.129836
H	-1.7872920315	-0.1270204044	 1.2860396787	 0.120782
H	 0.5833447688	-0.2792647529	-2.2210393134	 0.064709
H	 2.9471237227	-0.8862028083	-0.617031287	 0.102394
H	 2.3562219869	 0.7874107195	-0.4867330615	 0.111873
H	 1.4464177652	-0.2913522748	 1.8343585018	 0.074121
H	-0.2508059626	-2.6195485879	-1.1500757558	 0.122842
H	 1.4857546785	-2.6966094401	-1.4762868194	 0.12142
