14
gdb 16059	3.64121	1.75299	1.51339	3.2681	59.69	-0.2485	-0.0356	0.2129	845.9363	0.105894	-419.628533	-419.621408	-419.620464	-419.659975	26.249	
O	-0.0064717656	 1.3726556025	-0.0013608176	-0.426468
C	 0.0096098108	-0.0107583555	 0.0521263212	 0.084877
C	-0.3413877708	-0.8033274726	 1.278911452	-0.217825
C	-1.4951344815	-0.1138566759	 1.9956819897	-0.107712
O	-2.2643509344	 0.0015587428	 0.7598156761	-0.318538
C	-1.2971665089	-0.7776421361	 0.0606838836	 0.305032
C	-1.6899330383	-1.816821921	-0.8989376886	 0.060217
O	-2.8211579292	-2.0569729075	-1.2385061797	-0.259881
H	-0.9333892666	 1.6408085532	 0.0748846429	 0.304728
H	 0.802144561	-0.4421093013	-0.5533741018	 0.122906
H	 0.2541857605	-1.6227873415	 1.6590523188	 0.11991
H	-2.0224743229	-0.7555031481	 2.7065632607	 0.132049
H	-1.2851024772	 0.8626764348	 2.4432894068	 0.125306
H	-0.814736747	-2.3739508238	-1.3066117739	 0.0754
