19
gdb 37412	3.51913	1.79604	1.65616	1.8859	76.29	-0.2537	0.0919	0.3456	882.6173	0.16391	-385.864132	-385.858322	-385.857378	-385.893892	26.04	
C	-0.0390770619	 1.5615584153	 0.0512205656	-0.242858
C	 1.5058403086	 1.4163474324	-0.0004132601	-0.042771
C	 1.7665018525	 0.7951477513	 1.3889790402	-0.221077
C	 0.824838068	-0.4492092349	 1.2446230354	-0.076741
C	 1.7459894515	-1.5299181381	 0.6810323545	 0.053448
O	 1.2665875993	-2.2550889695	-0.4530947339	-0.264068
C	 2.086307811	-1.0859820679	-0.675741259	 0.012188
C	 1.2500902957	 0.1485506887	-0.9218787733	-0.036738
C	 0.001207139	 0.0173002559	 0.0024071707	-0.015774
H	-0.4747145328	 2.0570303204	 0.9238796465	 0.08781
H	-0.4614532084	 1.9821703836	-0.8649307172	 0.096878
H	 2.1540013763	 2.2328657278	-0.3188196878	 0.061029
H	 2.8077056382	 0.5095846723	 1.5659096786	 0.092509
H	 1.4609797649	 1.4749209036	 2.1892554	 0.096501
H	 0.2563861078	-0.7178402263	 2.1353607498	 0.064644
H	 2.4403915929	-2.0618814457	 1.3264527832	 0.093874
H	 3.0460015116	-1.2687723012	-1.1495875539	 0.092742
H	 1.040410123	 0.4083560761	-1.96007649	 0.072541
H	-0.8558160673	-0.5897776439	-0.2779048393	 0.075864
