18
gdb 39611	3.94517	1.27603	1.26585	1.9064	76.	-0.2442	0.0171	0.2613	1056.4305	0.149862	-401.978248	-401.970944	-401.97	-402.010517	28.416	
C	 0.1881478498	 1.629758303	 0.3992747582	-0.308032
C	 1.3922839905	 1.9672493857	-0.4435715727	-0.061867
C	 2.0707462713	 0.8786349659	-0.8010037382	-0.061867
C	 1.4411900373	-0.3807844521	-0.2608571998	-0.308016
C	 0.0692608041	 0.0909462993	 0.2792792952	 0.384868
C	-0.4950646014	-0.666272607	 1.5144120563	-0.253736
N	-1.7451820708	-1.2986436767	 1.0679498821	-0.265279
C	-1.8683315357	-0.975618061	-0.1506984146	 0.107845
O	-0.938189954	-0.1995392293	-0.7483666739	-0.253258
H	 0.3366726805	 1.9312366004	 1.4455604031	 0.109894
H	-0.736779924	 2.1081711908	 0.0603720155	 0.121258
H	 1.6650868385	 2.987375511	-0.6882771616	 0.095992
H	 2.9848179556	 0.8698267117	-1.3835454617	 0.095991
H	 1.3023443949	-1.1636620461	-1.0138854066	 0.121254
H	 2.0499410239	-0.8177539677	 0.5429705682	 0.109891
H	 0.1975878039	-1.4325933446	 1.8801484152	 0.114446
H	-0.7002713066	 0.0083078419	 2.3532261085	 0.114442
H	-2.6864283176	-1.2725330051	-0.798449603	 0.136175
