12
gdb 76	9.69683	4.1533	3.01703	1.1876	43.57	-0.2595	0.0352	0.2948	443.1687	0.102062	-248.416462	-248.410358	-248.409414	-248.445651	20.256	
C	-0.0916069514	 1.3754004601	-0.0072942591	-0.222029
O	-0.0696453372	-0.0483158103	-0.1114881209	-0.225889
C	 0.6811462531	-0.5614267288	-1.1073245763	 0.400525
C	 0.6040529833	-2.0670154987	-1.0876689236	-0.457987
N	 1.3264553326	 0.1926634321	-1.8996773119	-0.524658
H	 0.9146391568	 1.7684365489	 0.1625746035	 0.135613
H	-0.4856282569	 1.8262461472	-0.9223521639	 0.135604
H	-0.739714304	 1.600074234	 0.8411060529	 0.122801
H	-0.4343006504	-2.3924216178	-1.203252047	 0.145967
H	 1.2062711041	-2.5004997736	-1.8874563954	 0.125501
H	 0.9565133742	-2.4497667017	-0.1250183847	 0.145966
H	 1.8350411459	-0.3610436113	-2.5848605537	 0.218587
