16
gdb 66876	3.17921	1.9956	1.76398	2.7479	71.72	-0.2145	-0.033	0.1815	825.1749	0.126024	-396.806903	-396.800405	-396.799461	-396.8373	27.208	
N	 0.1254790179	 1.484043378	-0.0330011254	-0.630773
C	 0.0228199947	 0.0768032678	 0.0237515361	 0.278771
C	-0.208664311	-0.8138441247	-1.2543428044	-0.062286
N	 0.7553172942	-1.8762897156	-1.2900928496	-0.193305
C	 0.7062256848	-2.3279054329	-0.089782444	 0.119189
C	 1.7802479923	-1.9089010881	 0.8859148017	-0.268118
C	 0.623359031	-0.840969605	 1.1411997528	-0.037265
N	-0.4320388721	-1.8792027824	 0.7737325967	-0.155532
C	-1.1453477825	-0.9099929465	-0.0856616038	-0.104537
H	 0.3211355451	 1.8449034699	-0.9567230291	 0.24182
H	-0.6675681473	 1.9731357771	 0.3617392755	 0.240059
H	-0.48102666	-0.2966106094	-2.1669307435	 0.09852
H	 1.9145228649	-2.5099344538	 1.787124645	 0.128589
H	 2.7209942565	-1.6016252303	 0.4369276414	 0.135927
H	 0.5507716876	-0.4336301758	 2.151626857	 0.107173
H	-2.2228430761	-0.8085007383	-0.0819692963	 0.101769
