18
gdb 40706	3.38491	1.07443	0.94065	3.0769	73.09	-0.255	0.064	0.319	1278.3484	0.14732	-438.999693	-438.991353	-438.990409	-439.033557	30.591	
C	-0.2478919183	 1.3633172602	-0.1395538683	-0.182845
O	 1.0283120652	 0.7237747572	-0.1493731843	-0.241069
C	-0.1424492982	-0.0990736743	-0.0563525406	 0.091595
C	-0.3200704964	-0.8004494258	 1.2505096421	-0.055447
N	-1.453510893	-1.7360301478	 1.3519161508	-0.343672
C	-0.0910705911	-2.2632617837	 1.4502496508	-0.05615
C	 0.3707255892	-3.2160071787	 0.387569692	 0.075491
C	-0.5477068871	-4.1847182072	-0.229589464	-0.175006
O	-0.1015173571	-3.0294527267	-0.9427194809	-0.222893
H	-0.4753690619	 1.9405365725	 0.7567443129	 0.106523
H	-0.5484469767	 1.8288664725	-1.0771557902	 0.116367
H	-0.3619241888	-0.69443022	-0.9373666274	 0.130768
H	-0.1042317552	-0.1692298309	 2.1120816257	 0.088268
H	-1.8903409998	-1.6785658884	 2.2667668005	 0.237826
H	 0.2755141725	-2.543471842	 2.4382691232	 0.087974
H	 1.4284920805	-3.4762147479	 0.4522235494	 0.100148
H	-0.1669702061	-5.1355353021	-0.5987565202	 0.11422
H	-1.5956885178	-4.1641389266	 0.0609621186	 0.127901
