19
gdb 61967	5.35103	0.56536	0.53154	2.537	79.4	-0.2469	-0.025	0.2219	1993.3934	0.154982	-422.999834	-422.989228	-422.988283	-423.036788	37.102	
O	-0.1110970313	 1.3603195849	 0.0121705319	-0.426488
C	-0.0521547148	-0.0641908899	-0.0180354803	 0.105454
C	 0.6375702653	-0.5809733569	-1.2844683741	-0.197899
C	-0.0467995859	-0.079611811	-2.5717285971	-0.35861
C	 0.6427479331	-0.5103916377	-3.7806268509	 0.29001
C	 1.2332059777	-0.8783385647	-4.7608457927	-0.434647
C	 0.6054869309	-0.6173290392	 1.2596790487	-0.302361
C	-0.1388871693	-0.2193555546	 2.5185276884	 0.155202
O	-0.3830137001	-0.9724248921	 3.4264594466	-0.240492
H	 0.7934243128	 1.6944598799	-0.0157548457	 0.281709
H	-1.1051260588	-0.3745257985	-0.0376411785	 0.103265
H	 1.6884845171	-0.2610659649	-1.2817901326	 0.102897
H	 0.6478440577	-1.6762209554	-1.2748897871	 0.118391
H	-1.0848398495	-0.4369154179	-2.5929772659	 0.132339
H	-0.1058096589	 1.014079494	-2.5401242932	 0.142338
H	 1.7426522899	-1.1966558576	-5.636252755	 0.195355
H	 0.6889491961	-1.707735096	 1.2334393829	 0.125938
H	 1.6261336102	-0.2090158229	 1.3291775339	 0.113528
H	-0.4544431622	 0.8453555404	 2.5475181006	 0.094073
