17
gdb 65181	2.56959	1.31076	1.17688	1.4286	74.2	-0.2537	0.0188	0.2725	1124.8671	0.132717	-421.74373	-421.73476	-421.733816	-421.777505	33.831	
O	 0.927529016	 0.3693043571	-1.713232056	-0.456955
C	 0.2533759463	-0.113643095	-0.5808425246	 0.364851
C	 1.0617488538	-0.7859315672	 0.5040821253	-0.333457
C	 0.513432794	 0.6125000686	 0.6984545691	-0.289141
C	-1.1133938423	-0.6425714306	-0.9022856439	-0.007338
O	-2.0346275911	-0.8091577612	 0.1665334592	-0.243304
C	-2.3526583993	 0.166916164	-0.848939108	-0.153735
C	-2.3867697561	 1.5533415385	-0.4736993193	 0.35291
C	-2.4766172155	 2.720359136	-0.2004541417	-0.427897
H	 1.2522189448	-0.3879193213	-2.2133088521	 0.283511
H	 0.6027422951	-1.5960341058	 1.0604964868	 0.125284
H	 2.1261061558	-0.8894872949	 0.3234065734	 0.113303
H	 1.2090152812	 1.4408103537	 0.6391563926	 0.123227
H	-0.3157384222	 0.7406405091	 1.3820343719	 0.13771
H	-1.1147813502	-1.4645322204	-1.6249216955	 0.088639
H	-3.1713186077	-0.1437998617	-1.4981018173	 0.118966
H	-2.5358261626	 3.7517857411	 0.04597938	 0.203426
