13
gdb 125741	3.23072	1.49064	1.02646	3.3493	64.77	-0.3013	-0.0856	0.2157	1068.7976	0.087918	-489.894904	-489.88716	-489.886216	-489.927709	27.847	
C	-0.1977116979	 1.5384805198	 0.0472211211	-0.456548
C	 0.0016375185	 0.0550880138	 0.0128818281	 0.318777
N	 0.0297739378	-0.5155957279	-1.1324111732	-0.124813
O	 0.218359683	-1.915926421	-1.1588130182	-0.261629
C	 0.3695371988	-2.6777798832	-0.0454055042	 0.507754
O	 0.5249794094	-3.8510949624	-0.117641618	-0.321973
O	 0.334452748	-2.0388101386	 1.1590583994	-0.251752
C	 0.1549849397	-0.6770833521	 1.2774560667	 0.348769
N	 0.1252637584	-0.102232487	 2.3988231905	-0.488625
H	 0.6464678153	 2.0183629992	 0.550356646	 0.161883
H	-0.2933325177	 1.9213394701	-0.9691741563	 0.154902
H	-1.0933354555	 1.7828071046	 0.6253408176	 0.161888
H	 0.2483637322	-0.7689236152	 3.1630352607	 0.251366
