13
gdb 27205	3.6175	1.65038	1.1348	1.3918	67.96	-0.1844	-0.0096	0.1748	969.9458	0.0919	-452.760914	-452.754241	-452.753296	-452.791842	25.932	
N	 0.0934410318	 1.3768204629	 0.1935065007	-0.594137
C	-0.0621668177	 0.0105809274	 0.0676215665	 0.286097
C	-1.1304051437	-0.8431204427	 0.039680195	 0.122685
N	-2.525232696	-0.929010025	 0.0279707769	-0.351892
C	-2.7387230422	-2.1954217825	-0.0167307643	 0.037731
O	-1.6321587671	-3.0352591741	-0.0394060933	-0.230178
C	-0.5874908524	-2.1538415192	-0.0038483841	 0.293527
C	 0.7616193662	-2.0881999581	-0.0070142161	-0.200353
O	 1.0748962518	-0.7274545986	 0.0425982541	-0.187435
H	 0.9167771777	 1.7314445753	-0.2761238482	 0.260857
H	-0.7355765301	 1.8896123161	-0.0730432419	 0.268444
H	-3.6914752584	-2.7026587313	-0.0394922195	 0.150653
H	 1.5944702102	-2.7634483802	-0.0412171757	 0.144001
