16
gdb 30298	3.08923	1.62451	1.16791	3.264	70.76	-0.1926	0.0333	0.2259	1016.2576	0.127951	-434.08223	-434.074821	-434.073877	-434.114141	28.5	
O	-0.2102536524	 1.4687060141	-0.150522483	-0.441979
C	 0.0279141461	 0.0621759426	-0.0246504065	-0.022118
C	-1.3464360011	-0.6872058873	-0.0572470856	-0.179577
N	-1.5212682886	-1.3533790772	-1.3982566751	-0.42503
C	-0.2435725413	-1.2264333392	-1.9528275449	 0.353284
C	 0.681417049	-0.5476836764	-1.2249546227	 0.222263
N	 1.9106087046	-0.5609026792	-1.8423679442	-0.347059
C	 1.7121974149	-1.2557269865	-2.939731949	-0.02172
N	 0.4022072945	-1.7005732308	-3.060115231	-0.374632
H	 0.6128480152	 1.869319457	-0.4502617957	 0.28594
H	 0.5437751003	-0.1382813201	 0.9239891855	 0.075339
H	-1.359485727	-1.4685920581	 0.7076287253	 0.120287
H	-2.1630275994	 0.0103418707	 0.1371613725	 0.124067
H	-2.2434152289	-0.8979765455	-1.9487914304	 0.236855
H	 2.4513626541	-1.4793636454	-3.6940015041	 0.126639
H	 0.0310278999	-2.2764522688	-3.796587121	 0.267441
