11
gdb 123322	1.99375	1.9297	0.9806	1.1787	71.15	-0.287	-0.0649	0.2221	1073.8931	0.065787	-414.376942	-414.3697	-414.368756	-414.409042	26.237	
C	 0.0753053147	-1.1636363506	-0.0047691802	-0.373907
C	 0.0190005721	 0.0365367327	 0.0026025059	 0.267285
C	 0.0028376143	 1.450221972	 0.0106602469	 0.210001
N	-1.1247761985	 2.1324612157	 0.0284410934	-0.194831
O	-0.755144217	 3.4712164541	 0.0312927882	-0.146289
C	 0.571080026	 3.5741494847	 0.0154408847	 0.008475
C	 1.1398734902	 2.3352187763	 0.0015268303	-0.04713
C	 2.5121823678	 1.9975834284	-0.0173323574	 0.201203
N	 3.6340777542	 1.7146445557	-0.0327918504	-0.332445
H	 0.119628577	-2.2255168646	-0.0112366269	 0.216705
H	 0.9842988691	 4.5706090555	 0.0158641054	 0.190931
