17
gdb 2985	3.92383	1.93672	1.42478	2.7391	64.92	-0.2424	-0.0173	0.2251	873.4012	0.146661	-309.717869	-309.709909	-309.708964	-309.750647	28.11	
C	 0.1001055864	 1.4386550375	 0.1084842416	-0.411222
C	-0.0422511634	-0.0895986876	 0.0038805006	-0.075586
C	-1.5114456081	-0.4702751394	-0.0153225601	 0.171652
O	-2.0644903545	-1.1567807572	 0.8039831838	-0.25156
C	 0.6265867964	-0.6315512311	-1.2511627891	 0.023235
C	 2.0887696575	-1.0014867113	-1.2293171622	-0.273499
C	 1.0387037774	-2.0798739159	-1.3314689816	-0.271384
H	 1.1556916003	 1.7227428053	 0.0738805433	 0.128923
H	-0.4071749048	 1.9386767196	-0.7246169598	 0.119987
H	-0.3294670302	 1.8169829523	 1.0408899344	 0.127343
H	 0.3973431413	-0.5687082049	 0.8857998446	 0.089945
H	-2.0727262536	-0.0535646075	-0.8873533656	 0.065081
H	 0.2628964821	-0.185176694	-2.1741969668	 0.085482
H	 2.6888212877	-0.7793055617	-2.1047579359	 0.115723
H	 2.6218593461	-0.9017928723	-0.2892967581	 0.115644
H	 0.8639939696	-2.7004794265	-0.4588734553	 0.124583
H	 0.9203794098	-2.5987660354	-2.2759871938	 0.115652
