18
gdb 78879	2.59023	2.11732	1.47235	1.8071	72.78	-0.2274	0.0638	0.2912	921.0494	0.148577	-401.887485	-401.880179	-401.879234	-401.918747	29.698	
C	 0.085251793	 1.4409723117	 0.0037453258	-0.502083
C	 0.0438516312	-0.0628401876	 0.0347724702	 0.285193
C	 0.5300871731	-0.8949491395	-1.1571995098	-0.168463
C	 0.5553917655	-2.3339439481	-0.6179608755	-0.064256
C	 0.1204435394	-2.2394686719	 0.8033330571	-0.096055
C	 0.3213605331	-0.8294694758	 1.3208664723	 0.071842
O	 1.5987516081	-0.5945257494	 1.8845908069	-0.4339
N	-0.9033840836	-2.2949912346	-0.2761889821	-0.166177
C	-0.9279014485	-0.8581264819	-0.7840425812	-0.069503
H	 1.0443148174	 1.8028714249	 0.3883011943	 0.130979
H	-0.0415712379	 1.8262831616	-1.0126095004	 0.11894
H	-0.7077119314	 1.8709896622	 0.625868626	 0.124213
H	 1.0482316287	-0.4939457409	-2.0167630166	 0.093682
H	 1.0057018212	-3.2013277596	-1.0862891459	 0.098235
H	 0.1456025443	-3.0960245822	 1.4670750408	 0.099522
H	-0.3977295494	-0.571944431	 2.1056766801	 0.096496
H	 2.2526299967	-0.8447796973	 1.2210390101	 0.282563
H	-1.8046817508	-0.4820626307	-1.2947627921	 0.098771
