17
gdb 50469	4.39677	0.94577	0.81885	2.5024	69.96	-0.268	-0.045	0.223	1334.31	0.135867	-459.012496	-459.004046	-459.003102	-459.046769	30.088	
O	 0.047650365	-0.114882578	 0.1735767773	-0.235655
C	 0.0396431303	 1.0849939207	 0.1001200581	 0.149384
C	 1.2782907266	 1.9580456538	 0.0399116495	-0.101951
C	 1.276365376	 2.8196546583	-1.2330280585	-0.240408
C	 2.5222020706	 3.7077296506	-1.2384043274	-0.343083
C	 2.8166191772	 4.4256806298	 0.0703126837	 0.411855
O	 3.5146476278	 5.3986066641	 0.1353341314	-0.314375
O	 2.3319728474	 3.8893435675	 1.2203812779	-0.230351
C	 1.3023661518	 2.8920754259	 1.2534097932	-0.074422
H	-0.9199334438	 1.6534949581	 0.059456508	 0.080146
H	 2.1514027139	 1.2976565211	 0.0535604375	 0.109042
H	 1.2538461952	 2.1930947571	-2.1298140312	 0.123927
H	 0.3691717623	 3.4376209395	-1.2524891913	 0.115826
H	 3.4105310367	 3.0972275059	-1.4465623052	 0.14759
H	 2.4835745591	 4.4701184492	-2.0193225193	 0.144457
H	 0.3363189123	 3.4080989578	 1.3457537214	 0.118096
H	 1.4728856717	 2.3330097987	 2.1767530449	 0.139922
