14
gdb 8662	2.92381	1.6852	1.4313	1.4739	60.46	-0.2544	-0.0508	0.2036	905.7532	0.103856	-419.636312	-419.627824	-419.626879	-419.669088	30.718	
O	 0.0914450412	 1.334630088	 0.2662995186	-0.432549
C	 0.0987908807	-0.0685255851	 0.0737075321	-0.118668
C	-1.3549742554	-0.5894828741	 0.0424244863	 0.062049
O	-2.0788608837	-0.0685644822	 1.1554763504	-0.449698
C	-2.1046463538	-0.0386577229	-1.1907616897	 0.137366
O	-1.653462809	 0.8003363219	-1.9309200916	-0.266817
C	-1.4101524806	-2.0441070447	 0.034456744	 0.303267
C	-1.4390859832	-3.2427395397	-0.0454373378	-0.416934
H	-0.216120152	 1.7135094984	-0.5686501526	 0.304108
H	 0.6211032471	-0.3613740848	-0.8441773121	 0.121023
H	 0.6126980827	-0.5107704347	 0.9304421409	 0.132894
H	-1.6847748275	 0.8074582433	 1.30060095	 0.298237
H	-3.1372188128	-0.4262194322	-1.2963697809	 0.116427
H	-1.4662840736	-4.3038997513	-0.0947591776	 0.209296
