18
gdb 80512	2.27339	1.46688	1.27144	0.9983	80.49	-0.2348	0.0253	0.2601	1100.7529	0.145501	-401.859911	-401.850892	-401.849947	-401.893163	34.371	
C	-0.1650398869	 1.492501721	-0.0781910178	-0.329368
N	 0.1087102264	 0.063282246	 0.0532168447	-0.127226
C	 1.3866640886	-0.5391696269	-0.1959576845	-0.109306
C	 2.5714595376	 0.3163711575	 0.2835666819	-0.275453
C	 1.9921183282	 0.2673093549	 1.7212070707	 0.04651
O	 1.7933801807	 1.5247456507	 2.3221570177	-0.421374
C	 0.7608736134	-0.5337576775	 1.2045094914	 0.123115
C	 0.1036019491	-1.5482328658	 1.9620141184	 0.20994
C	-0.4163174214	-2.3845417449	 2.6541919079	-0.39778
H	 0.6293806753	 2.1560166437	 0.273968725	 0.134493
H	-0.3696302112	 1.6989121655	-1.133584578	 0.120101
H	-1.0718469817	 1.7165733831	 0.4911620677	 0.12695
H	 1.4442135124	-1.3709324973	-0.8897218368	 0.108383
H	 3.5354934622	-0.1879339303	 0.2008355466	 0.113417
H	 2.6514092006	 1.3124091305	-0.1573464985	 0.116351
H	 2.5978542997	-0.3888274152	 2.3603967697	 0.084678
H	 1.3469753945	 1.3894574846	 3.1649085251	 0.289281
H	-0.8874201975	-3.1299995597	 3.2454686488	 0.187289
