16
gdb 110749	2.60537	1.33386	1.11957	3.1031	65.9	-0.2312	-0.013	0.2182	1134.2285	0.122725	-474.988816	-474.980121	-474.979177	-475.022645	31.605	
C	-0.3539638548	 1.2668797335	 0.1426986876	-0.319522
N	 0.4806938343	 0.1009952612	-0.1424567594	-0.29111
C	 0.9683861452	-0.5437409434	 1.0331810598	-0.028471
C	 0.2214968502	-1.5213998302	 1.9083176115	-0.028207
O	-0.6508892502	-2.3294185735	 1.0671129344	-0.262832
C	 0.4421801186	-2.8729925006	 0.3999923218	 0.370064
O	 0.4491712816	-3.7810891813	-0.3643932056	-0.324572
C	 1.4478765155	-1.9787087784	 1.0959845325	 0.156198
O	 2.7541774701	-2.2732477803	 1.3703847104	-0.435586
H	 0.2443149611	 2.0224664443	 0.6635884133	 0.126303
H	-0.6935673783	 1.7032259886	-0.8000009764	 0.128238
H	-1.236069068	 1.0451742526	 0.7650935272	 0.110471
H	-0.0299233458	-0.5564658461	-0.7210851838	 0.240429
H	 1.6375410561	 0.0901218723	 1.6162135226	 0.123087
H	 0.010383573	-1.5048292452	 2.9683111616	 0.132264
H	 2.8107692614	-3.1846250437	 1.6818192124	 0.303247
