17
gdb 87353	2.09653	1.3112	0.93028	2.3054	71.47	-0.2683	-0.0477	0.2205	1267.0929	0.132267	-458.982357	-458.972898	-458.971953	-459.017136	33.118	
C	-0.0346804486	 1.3847820897	 0.062647709	-0.410245
C	 0.189984018	-0.1090061692	 0.0680215522	-0.032108
C	 1.5651821949	-0.6936425832	 0.0464871223	-0.332001
C	 0.7321681525	-0.7972999375	 1.3167173374	 0.272201
O	 1.0260981083	 0.0367643767	 2.4153640295	-0.235739
C	 2.1888106841	-0.1971606979	 3.0778028801	 0.152209
O	 2.5104642011	 0.4329376085	 4.0363708294	-0.259019
C	 0.1458634852	-2.1172385498	 1.6775669909	 0.106722
O	-0.1498428163	-2.9604895042	 0.8669824758	-0.260902
H	 0.7338279246	 1.9086644664	 0.6352645295	 0.136746
H	-0.0141134343	 1.7615718109	-0.9649208806	 0.130422
H	-1.0067463549	 1.6379327588	 0.4962240544	 0.13465
H	-0.569879997	-0.7056119358	-0.4287006523	 0.123131
H	 1.7325203997	-1.6242148499	-0.4841098184	 0.148916
H	 2.4056653195	-0.0085119658	 0.0853832496	 0.133759
H	 2.7787179188	-1.0159976179	 2.6264597551	 0.094087
H	-0.0096479755	-2.2619299198	 2.7690419162	 0.097172
