17
gdb 51185	4.36655	1.01533	0.93299	2.9347	69.26	-0.269	-0.002	0.267	1245.4913	0.135884	-458.968321	-458.960382	-458.959438	-459.001273	29.411	
O	 0.0646696329	-0.0016364033	-0.2655468178	-0.266125
C	 0.113679255	 1.1883178337	-0.32398007	 0.149783
O	 1.0565561975	 1.906588833	 0.3335219181	-0.234032
C	 0.982584319	 3.3065985443	 0.222618135	 0.395915
C	 1.1997737935	 4.0088308733	-1.0895973443	-0.343491
C	 2.2251965118	 4.1244493885	 0.0199953651	-0.127259
C	 2.081577267	 5.3062083347	 0.9597976374	-0.092884
O	 0.689864137	 5.3657150054	 1.2829338388	-0.252817
C	 0.1730991312	 4.043717764	 1.2795624085	-0.144882
H	-0.5756939648	 1.824752091	-0.9080684016	 0.089863
H	 1.4818109888	 3.3917694171	-1.9352865195	 0.129722
H	 0.5754593462	 4.8647651182	-1.32632908	 0.134846
H	 3.1864975829	 3.6412419388	-0.1021289429	 0.114401
H	 2.6936535351	 5.1483299149	 1.8614553987	 0.104521
H	 2.3501438616	 6.2716900195	 0.5207029342	 0.117721
H	-0.8995388264	 4.1104355936	 1.0695574172	 0.114153
H	 0.3140299017	 3.5346849933	 2.2465979432	 0.110564
