21
gdb 74941	3.2765	1.56613	1.40322	0.2924	87.17	-0.2182	0.0271	0.2453	1032.286	0.186104	-349.95565	-349.948649	-349.947705	-349.986624	29.848	
C	-0.0208778149	 1.5364067518	 0.0269731708	-0.507503
C	-0.046236593	 0.0431705575	-0.0327576886	 0.326763
C	-0.092092668	-0.7568566307	-1.1082812665	-0.192431
C	 0.0851250631	-2.1902947889	-0.6468933145	-0.064902
C	 1.5710726047	-2.2692228297	-0.1153987418	-0.207463
C	 1.2869755243	-1.8384962339	 1.3301032468	-0.039744
C	 0.2624239381	-2.9260326367	 1.7492760863	-0.240471
C	-0.6447815178	-2.1926597982	 0.739238925	-0.012469
C	 0.0202678862	-0.8558353554	 1.1729540909	-0.099142
H	 0.9126699814	 1.9021472816	 0.4743514113	 0.124584
H	-0.1123695026	 1.9804548611	-0.9684609118	 0.121315
H	-0.8358024137	 1.9273036167	 0.6497976818	 0.122004
H	-0.0863588342	-0.4425775801	-2.1461598414	 0.083441
H	-0.193387176	-2.9696670665	-1.3566461735	 0.055516
H	 1.9816643701	-3.2833312843	-0.1498203374	 0.090312
H	 2.2370081722	-1.6038471499	-0.6690588446	 0.090048
H	 2.1333311969	-1.5645638678	 1.9595778376	 0.058964
H	 0.5266479362	-3.9726360294	 1.569771125	 0.084618
H	-0.0964051684	-2.8036416278	 2.7748042372	 0.09195
H	-1.730466444	-2.3024848403	 0.7166455402	 0.057882
H	-0.3007369707	-0.4409009295	 2.1300955671	 0.056729
