27
gdb 100936	1.70193	1.09753	0.86033	0.983	93.02	-0.2479	0.0796	0.3275	1612.0539	0.249081	-390.695246	-390.682958	-390.682014	-390.733385	43.771	
C	-0.0101085414	 0.0364029559	 1.9952648559	-0.390519
C	-0.1793055047	-0.0929277556	 0.4775658672	-0.184546
C	-1.5350977163	-0.68111694	 0.0302245031	 0.042844
C	-1.8534730471	-0.3110852196	-1.4346513428	-0.176634
C	-2.2774145872	 1.1492171073	-1.6263951089	-0.391496
C	-1.5704337183	-2.2070195263	 0.2633941481	 0.126495
C	-2.9793584834	-2.807842591	 0.1997831391	-0.415275
O	-0.695905609	-2.7925148431	-0.697418176	-0.246172
C	-0.2572231964	-4.0938845802	-0.3933648978	-0.232071
H	 0.9687342053	 0.4571251753	 2.2469927197	 0.110469
H	-0.7742760077	 0.6961453734	 2.4221193028	 0.111282
H	-0.0882036764	-0.9293118666	 2.5057143356	 0.113577
H	-0.0509628766	 0.8989089426	 0.0304748782	 0.089576
H	 0.6156662995	-0.7215243556	 0.0599017612	 0.107343
H	-2.3222760356	-0.2516109152	 0.6676804492	 0.057861
H	-0.9769777527	-0.5334510797	-2.0528946305	 0.107947
H	-2.6546508975	-0.9545429929	-1.8135005398	 0.09134
H	-2.4859113273	 1.3603807807	-2.6801534258	 0.109652
H	-3.186679346	 1.3746441854	-1.0572144911	 0.109452
H	-1.5038863451	 1.8522403826	-1.3008887142	 0.116186
H	-1.1673867889	-2.411223321	 1.269720009	 0.058922
H	-3.4260509314	-2.6795821151	-0.7898069761	 0.125996
H	-2.9643108591	-3.878251685	 0.4246629604	 0.113367
H	-3.628916615	-2.326910001	 0.9381982294	 0.114482
H	 0.2075481153	-4.1438146366	 0.6043110599	 0.100523
H	-1.0671028551	-4.837276971	-0.4304888894	 0.105056
H	 0.4915432783	-4.3651042675	-1.1425056865	 0.124344
