23
gdb 83610	2.25088	1.83712	1.20101	0.0284	89.32	-0.2464	0.0896	0.336	1135.9803	0.207065	-351.119188	-351.110859	-351.109915	-351.152038	33.536	
C	-0.236746664	 1.5343224061	-0.007304179	-0.418311
C	 0.038708312	 0.0358390715	 0.0094310247	 0.032488
C	 1.170642227	-0.5130494413	-0.9139033614	-0.087502
C	 0.9127068426	-1.9108566502	-1.5526369146	-0.227144
C	 1.7157069799	-2.5999613846	-0.4029033073	-0.336953
C	 1.8489800622	-1.2426597693	 0.2998861568	 0.410616
C	 2.979959421	-0.6418856872	 1.1366701628	-0.327031
C	 1.9208082888	 0.2098593634	 1.9040069363	-0.22871
C	 0.7645453139	-0.6009744553	 1.2336799522	-0.091555
H	 0.6773964802	 2.1243730174	 0.1141065539	 0.114473
H	-0.6894537681	 1.8311320624	-0.9601263122	 0.112102
H	-0.9270384671	 1.8222402095	 0.793835623	 0.111288
H	-0.9041204951	-0.4899946997	-0.1859810399	 0.06348
H	 1.7015478286	 0.2128480661	-1.5355710649	 0.051523
H	-0.1440096713	-2.1882471254	-1.6098930599	 0.094925
H	 1.3513427166	-2.0432786639	-2.5444900063	 0.098054
H	 1.2085081355	-3.3924571534	 0.1565960377	 0.091938
H	 2.6789884159	-2.9926342559	-0.7451255516	 0.098597
H	 3.4545832561	-1.3858103331	 1.7859635139	 0.096937
H	 3.7695861678	-0.1065982663	 0.5991027897	 0.090017
H	 1.9610955039	 0.1220146736	 2.9918624076	 0.09921
H	 1.9339484089	 1.2729872531	 1.6548378286	 0.099493
H	 0.1588934446	-1.1901760475	 1.92715684	 0.052064
