14
gdb 2385	4.80871	2.14696	1.79744	4.414	54.82	-0.2359	0.0182	0.2541	717.4239	0.113348	-361.73529	-361.728149	-361.727204	-361.766418	26.216	
N	 0.0214704028	 1.2333525153	 0.2787629481	-0.535973
C	 0.0070080761	-0.047617436	-0.1750955318	 0.462033
O	 1.0353444792	-0.6011500816	-0.5635749214	-0.415113
C	-1.3054942041	-0.7399237079	-0.151285705	-0.199603
C	-1.5956573551	-1.7202428973	-1.2936879118	-0.32351
C	-1.2608094145	-2.2662327838	 0.05094149	 0.157108
O	-0.0740074923	-2.9162784039	 0.315300235	-0.423523
H	 0.9009933748	 1.7225821163	 0.3009731423	 0.264904
H	-0.8098542516	 1.7074823299	 0.5826692055	 0.262686
H	-2.1436549653	-0.1969580174	 0.2729208438	 0.081747
H	-2.6168153632	-1.7689311609	-1.6553215142	 0.116537
H	-0.8243293808	-1.7852223405	-2.0535655542	 0.138672
H	-2.0710824296	-2.6772823906	 0.6452792029	 0.109187
H	 0.6352494735	-2.3591415615	-0.0568225393	 0.304848
