20
gdb 120799	2.84302	0.92773	0.78218	2.6634	82.94	-0.2262	0.0527	0.2789	1517.0561	0.168188	-403.059265	-403.049163	-403.048218	-403.09505	36.069	
C	-0.1764163616	 1.4860957913	 0.0281706879	-0.231227
O	 0.0379365777	 0.0986854361	-0.1031550487	-0.221015
C	 0.3815843931	-0.520704055	 1.1181225894	-0.095997
C	 0.5882947772	-2.0136168811	 0.9561161987	-0.019607
C	 0.1496650574	-2.7415287102	-0.2669250354	-0.239075
N	 1.569311708	-2.6294692683	 0.0609226266	-0.090215
C	 2.3968993331	-1.7668455131	-0.792050262	-0.328701
C	 2.8847167784	-2.5000901472	-1.9567171052	 0.325084
C	 3.2779526017	-3.0882954312	-2.9276764673	-0.441838
H	 0.7256416135	 2.0069609937	 0.3846856421	 0.109107
H	-0.4410588261	 1.8697404906	-0.9595476717	 0.132986
H	-0.9980803336	 1.7023546941	 0.7282560341	 0.10989
H	 1.2904255444	-0.0542501197	 1.5385972029	 0.09473
H	-0.4219318747	-0.3672565592	 1.8589128333	 0.097085
H	 0.5243598201	-2.5259846866	 1.9156750156	 0.094901
H	-0.2746076182	-3.7395175169	-0.1980703367	 0.112205
H	-0.233835685	-2.1274562704	-1.0774078619	 0.131476
H	 1.8669595745	-0.8637102	-1.1270246677	 0.139898
H	 3.2531864089	-1.4330893383	-0.1914415935	 0.126991
H	 3.6294533711	-3.6113866987	-3.7820024504	 0.193324
