21
gdb 58920	2.77281	1.55337	1.22206	1.633	81.72	-0.2274	0.0746	0.302	1108.1574	0.181547	-387.007646	-386.999185	-386.998241	-387.040566	33.352	
C	-0.0912195126	 1.5457559126	-0.052899127	-0.393096
C	-0.0487691745	 0.0118604597	 0.0203483444	-0.126618
C	 0.8269451876	-0.4813993813	 1.1798449039	-0.398499
C	-1.4451532811	-0.544612103	 0.0872622805	 0.514835
O	-2.3544373248	-0.2059902656	-1.0187508949	-0.368167
C	-3.1493329554	-1.0392951409	-0.134840116	 0.083266
C	-1.9887437279	-2.0124738645	 0.2287577205	-0.148338
C	-2.2574802795	-1.8553405793	 1.7415718342	-0.284271
C	-2.5703091841	-0.4488361099	 1.185065041	-0.13469
H	 0.9101429812	 1.9517899524	-0.2270447144	 0.108452
H	-0.7477454626	 1.8769139007	-0.8609137114	 0.139609
H	-0.4675373615	 1.9700612272	 0.8849112208	 0.112454
H	 0.3789065097	-0.3628337073	-0.9202684317	 0.089189
H	 0.43840178	-0.1353208627	 2.1438954671	 0.120527
H	 0.8863006038	-1.5737027535	 1.2089916416	 0.119829
H	 1.8447331309	-0.0930671128	 1.0757816071	 0.115613
H	-4.1821392857	-1.2579913601	-0.4049206009	 0.091751
H	-1.6666168941	-2.8831379579	-0.3431609279	 0.078439
H	-3.1110308489	-2.4143381515	 2.1359992221	 0.09653
H	-1.4021331335	-1.9479503919	 2.4136813008	 0.10352
H	-2.9101196769	 0.4513263096	 1.6975209403	 0.079666
