21
gdb 59095	2.05172	1.50208	0.97649	3.2943	79.55	-0.2378	-0.0183	0.2195	1270.0313	0.179788	-424.239055	-424.229028	-424.228084	-424.274057	37.153	
C	 0.0378408884	 1.5917348761	-0.065834815	-0.396831
C	-0.05735363	 0.0601116997	-0.0392260183	 0.028156
C	 0.577150145	-0.5693976504	-1.288065003	-0.404009
C	 0.5879708084	-0.5083526037	 1.2280158883	-0.093003
C	 0.0101821533	-0.1778889991	 2.6434672045	 0.070684
O	-1.3486310816	 0.1927683282	 2.5169027518	-0.425113
C	 0.2005915227	-1.6650475747	 3.0754062879	-0.365775
C	 0.410739268	-1.9961720039	 1.5871368592	 0.387914
O	 0.3604386396	-3.0082151107	 0.949686818	-0.299299
H	 1.0840592742	 1.9217723301	-0.0648446052	 0.103406
H	-0.4327370088	 1.9907925502	-0.9706820469	 0.110177
H	-0.4645456702	 2.0322463128	 0.799189856	 0.12693
H	-1.1184644515	-0.2124170649	-0.0153935454	 0.092129
H	 1.6371010713	-0.2974719758	-1.3678292603	 0.104044
H	 0.509689879	-1.6595516613	-1.2583849344	 0.143938
H	 0.0764953019	-0.2140160268	-2.1947450398	 0.107253
H	 1.6661169065	-0.2905245404	 1.2268756726	 0.097783
H	 0.5745196983	 0.5615439307	 3.2228245121	 0.071586
H	-1.7338638091	 0.2326351997	 3.397862141	 0.288769
H	 1.1080785665	-1.8415432535	 3.6623455	 0.12741
H	-0.6477877421	-2.1472972625	 3.5678023468	 0.123851
