18
gdb 31973	3.19462	1.02906	0.82586	3.0461	76.62	-0.1944	0.0284	0.2228	1397.4675	0.1491	-435.288233	-435.278992	-435.278048	-435.323534	32.947	
C	 0.4479780702	 0.5351467424	 0.6610407317	-0.329365
N	-0.3293370839	 0.3178491639	-0.5651489149	-0.394497
C	-1.4864464174	-0.4604724255	-0.4382852088	 0.302465
C	-2.8306741639	-0.1842635813	-0.51345425	-0.176547
N	-3.572825395	-1.3372452625	-0.3655632312	-0.298409
C	-2.6991407804	-2.3025647731	-0.1978446692	 0.290812
C	-2.9893847439	-3.755852182	 0.0028123694	-0.175813
O	-2.1440539636	-4.3442766275	 0.9888534454	-0.420373
N	-1.4156973299	-1.8240793072	-0.239832478	-0.300257
H	 1.3161675775	 1.1561780961	 0.4252502009	 0.126436
H	-0.1268018352	 1.0155436566	 1.4673897287	 0.114918
H	 0.8198830957	-0.4225814634	 1.0368405949	 0.125014
H	-0.5623790216	 1.2019355411	-0.9988933136	 0.239201
H	-3.299044092	 0.7769716326	-0.6641657732	 0.095544
H	-4.0566308903	-3.8619584087	 0.2339726377	 0.123269
H	-2.792110977	-4.3283481523	-0.9116370639	 0.123233
H	-2.3348313765	-3.9080773004	 1.8263853692	 0.285982
H	-0.5791954128	-2.3762791287	-0.1471397752	 0.268387
