17
gdb 67517	2.44426	1.84933	1.55582	3.7446	72.13	-0.241	0.0116	0.2526	935.4483	0.136354	-417.970127	-417.962526	-417.961582	-418.001821	29.872	
C	-0.0963394512	 1.5592597652	 0.0122326367	-0.477045
C	 0.029200172	 0.0631915572	-0.0228772473	 0.200441
C	 0.7421133323	-0.7793239851	-1.1089479114	-0.048981
N	 1.6143666055	-1.307266036	-0.0629435186	-0.321809
C	 0.9723362652	-0.6595695428	 0.9847965603	 0.358439
O	 1.118484481	-0.7024695701	 2.1755027966	-0.354745
C	-0.6118395736	-1.4818062876	-1.3524505768	-0.042095
C	-1.1830525843	-2.0794171743	-0.1330595031	-0.259548
N	-1.3156788083	-0.6214997149	-0.3127212424	-0.169454
H	 0.8881988311	 2.0368992112	 0.0137139508	 0.126009
H	-0.667940543	 1.9188417956	-0.8479889943	 0.129436
H	-0.6253627181	 1.8603887958	 0.9221579284	 0.146373
H	 1.2403097774	-0.3460816988	-1.9753963552	 0.096354
H	 2.1936288669	-2.1361626825	-0.0389060976	 0.248064
H	-1.0459470967	-1.6232503958	-2.3369446132	 0.101461
H	-2.137123637	-2.5875144744	-0.2368158273	 0.129137
H	-0.5447631092	-2.4820508828	 0.6475704244	 0.137963
