19
gdb 107896	3.4382	1.2007	1.11749	3.7096	79.46	-0.2336	0.0107	0.2444	1173.5203	0.159161	-385.868486	-385.860429	-385.859484	-385.901199	31.316	
C	 0.0329895062	 1.4801201087	-0.2075514337	-0.376642
C	-0.0833929436	-0.0088191471	 0.1430996027	-0.304758
C	-1.4996100219	-0.5141724452	 0.1082375635	 0.361314
C	-2.6384759619	-0.155516484	 1.0776330923	-0.290533
C	-3.4011650046	-1.3683141022	 0.475409176	-0.194157
C	-2.0104100123	-1.9085186459	-0.0534593775	-0.145933
C	-2.1649081483	-0.9105167786	-1.2292511734	-0.244641
C	-3.6408029128	-0.9418977802	-0.9889715574	 0.450678
O	-4.6107221459	-0.8861941716	-1.691524089	-0.344823
H	 1.0732885855	 1.8143113187	-0.155643151	 0.115974
H	-0.3367143907	 1.6768349789	-1.2188453656	 0.124456
H	-0.55010604	 2.0960821424	 0.484789846	 0.122774
H	 0.5292034821	-0.6034063931	-0.5462389656	 0.102581
H	 0.3268755076	-0.1851146891	 1.1461484548	 0.104118
H	-2.3348822584	-0.3369029853	 2.1132408952	 0.104947
H	-3.1175293457	 0.8268073101	 0.9961918507	 0.10418
H	-4.1550330548	-1.9195539041	 1.0302424339	 0.092515
H	-1.5585416731	-2.8884257534	-0.0799811599	 0.112009
H	-1.6169996874	-0.8941260188	-2.1618859922	 0.10594
