23
gdb 59233	2.39234	1.40382	1.04582	1.2403	85.01	-0.2465	0.0609	0.3074	1254.3679	0.204911	-388.265178	-388.255478	-388.254534	-388.299437	37.289	
C	-0.0077843864	 1.6339199371	 0.0741497887	-0.391968
C	 0.0539908609	 0.1010428097	 0.0427309308	 0.030116
C	 0.79106535	-0.4400781134	 1.2768439732	-0.389135
C	-1.3500262708	-0.5016239614	-0.0622719755	-0.013207
C	-2.2683462692	-0.0889227903	-1.2214960249	-0.076106
C	-1.7326186305	-0.5692402107	-2.5405391196	-0.281373
C	-2.4399569415	-1.5514730002	-1.6494768047	-0.054921
C	-1.5203477458	-2.007785086	-0.5274492522	 0.073172
O	-0.3829041423	-2.7082977731	-0.9929841555	-0.427243
H	 0.9962424064	 2.0689271905	 0.1225414585	 0.106873
H	-0.5029590451	 2.0297656172	-0.8178116013	 0.11924
H	-0.5643505787	 1.9878806617	 0.9508116392	 0.106151
H	 0.6234720766	-0.2018851365	-0.844099004	 0.08165
H	 0.2703092953	-0.1585525934	 2.2002543421	 0.110638
H	 0.866112268	-1.5326560323	 1.2609366456	 0.088844
H	 1.8099509294	-0.0433410754	 1.3365809111	 0.111888
H	-1.8676794112	-0.3632462354	 0.8951087667	 0.058687
H	-3.0330707179	 0.6760803622	-1.1642121036	 0.083094
H	-2.3026444753	-0.2554788161	-3.4091325991	 0.107505
H	-0.6668435465	-0.6640857967	-2.7193597827	 0.123765
H	-3.3351730222	-2.0708885131	-1.9681089955	 0.082361
H	-2.0557911515	-2.5953932318	 0.2286127228	 0.066317
H	 0.1022046786	-3.0413526926	-0.23186854	 0.28365
