13
gdb 128958	7.60713	0.79809	0.72557	3.7666	65.32	-0.2758	-0.0201	0.2557	1419.7513	0.089526	-452.73316	-452.72559	-452.724646	-452.766394	26.555	
N	-0.0213248773	-1.1181954519	-0.0048135711	-0.284587
C	 0.0048512177	 0.035617893	 0.002532404	 0.279543
C	-0.0118803892	 1.4973580581	 0.0119394159	-0.215
O	 1.3408680235	 1.9557664717	-0.00071308	-0.258163
C	 1.4786591699	 3.2898647584	 0.0058878845	 0.496803
N	 0.4528494947	 4.108718261	 0.0227411093	-0.225328
O	 1.0165186583	 5.3841534424	 0.0240891734	-0.185069
C	 2.3527782985	 5.2682798141	 0.007962826	 0.105537
C	 2.7306200758	 3.9674858493	-0.0043334722	-0.370875
H	-0.5535036588	 1.87419063	-0.8634434704	 0.176571
H	-0.5331813688	 1.8630114653	 0.9042382861	 0.176549
H	 2.9020628172	 6.197135557	 0.0073306289	 0.163164
H	 3.7189129186	 3.5426006815	-0.0183025846	 0.140855
