15
gdb 47148	3.25083	1.25998	0.96959	3.45	68.45	-0.2693	-0.0479	0.2214	1163.996	0.112942	-457.785352	-457.777832	-457.776887	-457.818112	27.377	
O	-0.4483019041	 0.6196715989	 1.7156290332	-0.349062
C	-0.2139813261	 1.4374344616	 0.8706293653	 0.406808
O	-1.1871511272	 2.1952373653	 0.2728164991	-0.230322
C	-0.5918105915	 3.0869350944	-0.6694516132	-0.127366
C	 0.8780833328	 2.8022216473	-0.6075008529	-0.209599
C	 1.0947619351	 1.8333174348	 0.2837069878	 0.146224
C	 2.3566617549	 1.2045230634	 0.7135310776	-0.034155
C	 3.2091345666	 0.4503548922	-0.2259269525	-0.164398
O	 3.5589878936	 1.7686311543	 0.1888800132	-0.231528
H	-1.0216635196	 2.8988570963	-1.661620484	 0.139197
H	-0.8360855455	 4.1189728427	-0.3875769736	 0.141229
H	 1.6207930148	 3.3257308223	-1.194194445	 0.141527
H	 2.392694809	 0.9215350262	 1.7646351897	 0.122862
H	 3.8454328671	-0.3472051	 0.1538379032	 0.128883
H	 2.8934739701	 0.3534144003	-1.2630876779	 0.119701
