19
gdb 85131	2.05368	1.70211	1.11545	3.389	75.52	-0.2415	-0.0314	0.2102	1138.0097	0.157911	-423.011525	-423.002693	-423.001749	-423.046032	32.274	
C	-0.5041022623	 1.3862659812	-0.0725224962	-0.414312
C	 0.1047121827	-0.0073644671	-0.1410575579	-0.063669
C	 1.4880928925	-0.1461632569	-0.8587890282	-0.373635
C	 1.9948961467	-0.9070057786	 0.372555425	 0.351891
O	 2.9813364193	-1.537682652	 0.6255325857	-0.298644
C	 0.7140065499	-0.6207107009	 1.1616462616	 0.157479
C	 0.8021304023	 0.1267503221	 2.5170055143	-0.123449
O	 0.1676330659	-0.9557028589	 3.2189935505	-0.269505
C	 0.0428392487	-1.7220531537	 2.0069759534	-0.127464
H	 0.2046231901	 2.1134288904	 0.3393179669	 0.11832
H	-0.7881417908	 1.7324679001	-1.0716288556	 0.123773
H	-1.4028480385	 1.4033954617	 0.5530441359	 0.126073
H	-0.6212381342	-0.7073237955	-0.5687987385	 0.083287
H	 1.5237873867	-0.6912052212	-1.8055961005	 0.131848
H	 2.0092549215	 0.8090335797	-0.9919557146	 0.131483
H	 1.8216866391	 0.3103560711	 2.8772167467	 0.116456
H	 0.2208407322	 1.0549656461	 2.5754897351	 0.106526
H	-1.0048744009	-1.925250494	 1.7487548718	 0.103149
H	 0.6007953293	-2.6652352334	 2.0554551044	 0.120394
