23
gdb 58562	2.0873	1.44235	1.17737	2.7926	81.44	-0.2534	0.0688	0.3222	1216.0945	0.203247	-425.4186	-425.408081	-425.407137	-425.453278	40.039	
C	-0.0051407098	 1.4375615904	-0.2815295466	-0.40193
C	-0.0626291134	-0.079585868	-0.0408517034	 0.030765
C	 0.8292877399	-0.4545843849	 1.1556605832	-0.404
C	-1.5138387865	-0.5599764685	 0.1559107916	 0.38166
O	-1.9642899523	 0.0018388458	 1.3723121299	-0.486717
C	-2.4356079672	-0.359518794	-1.0955205268	-0.290738
C	-2.2054597797	-1.8410784766	-1.4817628637	-0.270443
C	-1.739342871	-2.0988205857	-0.0276474976	 0.083782
O	-0.6394667269	-2.9453449784	 0.203286141	-0.42262
H	 1.033712122	 1.7619117819	-0.3990543469	 0.10557
H	-0.5477901945	 1.7425325641	-1.1812337664	 0.103522
H	-0.4343873717	 1.9746916874	 0.5689586405	 0.129462
H	 0.3253698326	-0.5907377263	-0.9307449444	 0.072557
H	 0.8284847317	-1.53062155	 1.3306462784	 0.136054
H	 1.8595511272	-0.1332885627	 0.9691490613	 0.095008
H	 0.4777687668	 0.0439817486	 2.0629248321	 0.123798
H	-2.8821270137	-0.2551916826	 1.5031568342	 0.272562
H	-3.4692855655	-0.1656543255	-0.790615098	 0.090218
H	-2.1463361783	 0.4011537697	-1.8214600383	 0.108591
H	-3.0597511259	-2.4136039237	-1.8495501692	 0.093324
H	-1.3709683342	-1.958295854	-2.1779020586	 0.112643
H	-2.598590139	-2.3903592953	 0.5995988422	 0.051899
H	-0.9059784906	-3.8491591618	 0.0072281954	 0.285033
