23
gdb 121859	4.30234	0.561	0.5127	1.0218	93.11	-0.2425	0.0633	0.3057	2234.694	0.202073	-388.270708	-388.258715	-388.257771	-388.310496	40.564	
C	-0.0191622577	 1.5000462981	 0.0632560725	-0.385206
C	-0.0425649797	-0.0190028869	 0.0433787405	-0.028047
O	 0.6908819869	-0.4961885281	 1.1526417949	-0.245023
C	 0.7362249495	-1.9028786494	 1.2318683622	-0.045674
C	 1.5305320369	-2.2922455431	 2.489599123	-0.16518
C	 0.853588013	-1.7651839745	 3.7696143157	-0.381642
C	 1.7204470766	-3.7414729286	 2.5307371939	 0.061584
C	 1.8517861507	-4.9383630046	 2.5616805927	 0.054939
C	 2.0237130164	-6.383926659	 2.6039348184	-0.497463
H	 1.0090619161	 1.8684755877	 0.0067003256	 0.126523
H	-0.57975376	 1.9015313265	-0.7862098165	 0.114344
H	-0.4680426128	 1.8785831976	 0.9860239985	 0.126022
H	-1.0803280152	-0.3913582173	 0.0856643189	 0.08585
H	 0.3961624723	-0.4008141419	-0.8942746141	 0.085629
H	-0.2811686689	-2.3256852359	 1.2885794106	 0.089769
H	 1.2196200888	-2.3281704952	 0.3380207033	 0.092603
H	 2.5130809448	-1.8089472241	 2.398785806	 0.108265
H	 0.7141678899	-0.6846356918	 3.6961791888	 0.129883
H	-0.1251265925	-2.236171954	 3.9066232176	 0.11668
H	 1.4625257554	-1.9887530487	 4.6492314597	 0.117978
H	 1.6482480065	-6.8031527007	 3.5441201941	 0.146361
H	 1.4837669209	-6.8737843267	 1.7858940632	 0.145577
H	 3.0795854821	-6.6634023592	 2.5160035608	 0.146224
