19
gdb 39074	2.32857	2.13636	1.53294	1.2888	80.05	-0.2325	0.0157	0.2482	943.7211	0.162197	-385.903586	-385.896604	-385.89566	-385.934632	28.841	
C	 0.0458637044	 1.4874576054	 0.4173270578	-0.261066
C	 1.1496878729	 2.3062295582	-0.2092876355	-0.045096
C	 1.900467566	 2.0957324397	-1.2942473096	-0.045095
C	 1.9206181597	 0.9618302474	-2.291905484	-0.261066
C	 1.2866124587	-0.3629473773	-1.8379056381	 0.042115
O	-0.0509833864	-0.1456546588	-1.3871045218	-0.265625
C	-0.0079935053	 0.0000227849	 0.0329413687	 0.042114
C	 1.2379452896	-0.7554775623	 0.439619477	-0.084187
C	 1.9830877948	-0.9643883137	-0.6371883394	-0.084185
H	 0.1175686587	 1.5663288305	 1.5111327322	 0.098846
H	-0.9192603105	 1.9448916069	 0.1541286938	 0.117767
H	 1.32250756	 3.2481514678	 0.3101347861	 0.08167
H	 2.6049599858	 2.8885886236	-1.5431505687	 0.08167
H	 1.4057785618	 1.2930145796	-3.2058204491	 0.117767
H	 2.9592313088	 0.7696092623	-2.5953965136	 0.098846
H	 1.242930753	-1.0490963181	-2.693338208	 0.080116
H	-0.9262642734	-0.4409158063	 0.441383178	 0.080115
H	 1.471975723	-1.009958374	 1.4654016748	 0.102648
H	 2.9604156482	-1.4272618158	-0.6855461605	 0.102648
