16
gdb 43185	2.28074	2.15729	1.28194	3.3618	69.37	-0.2351	-0.0389	0.1962	958.5939	0.125342	-437.822556	-437.815506	-437.814561	-437.85415	27.32	
O	-0.0142554863	-0.0061416339	 0.0226074639	-0.299287
C	-0.0298318643	 1.1896211488	 0.0197614261	 0.415213
C	-1.1375058908	 2.2464451672	 0.11245782	-0.222788
C	-1.6300678706	 2.7954811816	-1.2744559502	-0.192653
N	-0.8006253233	 4.0163695633	-1.084746122	-0.390147
C	-0.0761145253	 3.383131857	-0.0107069374	 0.331108
C	 0.67445067	 3.9337984124	 1.187379448	-0.161188
O	 1.4796191389	 2.7234768722	 1.2361923873	-0.285642
C	 1.0572260827	 2.2877613667	-0.0831496257	-0.082854
H	-1.8900264901	 2.1845366646	 0.8974778427	 0.105105
H	-1.3490980045	 2.1679094959	-2.1285206054	 0.116789
H	-2.7019730641	 3.0021366189	-1.3260035453	 0.126692
H	-0.2563248166	 4.3289795418	-1.8824352283	 0.225185
H	 1.2986966247	 4.8120535311	 0.9723408322	 0.109097
H	 0.1102542905	 4.101853331	 2.1105396912	 0.117788
H	 1.8848818092	 2.2129372111	-0.7950865773	 0.087581
