16
gdb 17739	6.26193	1.6943	1.62381	1.8271	69.18	-0.2547	0.1017	0.3565	820.2544	0.13128	-346.497821	-346.49189	-346.490945	-346.527607	24.271	
C	 0.0506009532	 1.5676394523	 0.0056197604	-0.303828
O	 1.2233478601	 0.718233568	-0.0098951797	-0.294261
C	-0.0494166017	 0.1147071487	 0.0030657296	 0.525686
C	-0.5599391748	-0.9467241434	 0.9655492293	-0.167569
C	-1.780129703	-1.250906174	 0.0193101353	-0.029986
C	-1.4878280747	-2.7645162502	 0.0121380923	-0.274532
C	-0.0970243541	-2.1012363371	-0.0020178777	-0.025647
C	-0.5817893953	-0.9418533164	-0.9529172433	-0.16757
H	-0.1001141733	 2.1274573	 0.9278947241	 0.115346
H	-0.1210452979	 2.1321307828	-0.9101253973	 0.115346
H	-0.5603225079	-0.9733127359	 2.054923865	 0.078693
H	-2.7374731197	-0.7286640918	 0.031539646	 0.074438
H	-1.7593477531	-3.3231928159	 0.9133371647	 0.095299
H	-1.7798352939	-3.3186257082	-0.885468015	 0.095299
H	 0.8910590705	-2.5607064676	-0.0144384507	 0.084593
H	-0.6069857345	-0.9629122114	-2.042121463	 0.078693
