23
gdb 58948	2.51101	1.35156	1.11377	1.4378	85.59	-0.2282	0.073	0.3012	1247.5311	0.204226	-388.26236	-388.252486	-388.251542	-388.296778	37.348	
C	 0.1385905692	 1.4540775355	 0.0712275011	-0.388478
C	-0.0854221157	-0.0643644707	-0.0365990369	-0.076938
C	-1.5799478875	-0.4067898623	-0.1276061327	-0.390806
C	 0.6764618463	-0.6158602612	-1.2096731044	 0.486513
O	 0.2548037062	-0.190123706	-2.5225231728	-0.33044
C	 0.4424509758	-1.5355745246	-3.0356387164	-0.096403
C	 1.0145298291	-2.0110507052	-1.7086371203	-0.229449
C	 2.1114789441	-1.0578132702	-1.2484959819	-0.077062
C	 3.164625764	-0.4547654017	-2.1514076081	-0.421678
H	 1.1998342825	 1.6908670194	 0.1949847393	 0.113307
H	-0.2158120819	 1.9578747464	-0.8335664974	 0.134169
H	-0.4057152728	 1.8680018326	 0.925861116	 0.10723
H	 0.3314655083	-0.5413595456	 0.8606911123	 0.074536
H	-2.0115614524	 0.0141387308	-1.0404091664	 0.131082
H	-1.736810922	-1.4900376406	-0.1476401702	 0.108333
H	-2.1262636111	-0.000466366	 0.7293890621	 0.106399
H	-0.5244740546	-1.9892339646	-3.2812839769	 0.107649
H	 1.0920630301	-1.5569455778	-3.9189607789	 0.101455
H	 0.8475105964	-2.9812995358	-1.2588446993	 0.092478
H	 2.4707727165	-1.3419338796	-0.2602537128	 0.084031
H	 2.7089620036	-0.0121897759	-3.0402801556	 0.13536
H	 3.7083782492	 0.3409933681	-1.6312025511	 0.115698
H	 3.8963407469	-1.204513685	-2.4713386987	 0.113013
