16
gdb 61086	3.63535	0.80553	0.66484	2.9612	76.78	-0.2658	-0.0294	0.2364	1583.3899	0.123307	-434.105324	-434.095825	-434.094881	-434.140635	32.224	
C	 0.9459551064	 1.1497853315	 0.1715763745	-0.34021
N	-0.0431080118	 0.1142338095	-0.11168551	-0.098864
C	-0.6720362268	-0.5523195003	 0.92822192	 0.166042
O	-0.4680933144	-0.3460926871	 2.0982259647	-0.310118
C	-0.3552911894	-0.2045676468	-1.4168011388	 0.136591
N	 0.2024321598	 0.386903149	-2.3924767047	-0.280409
C	-0.1510411028	 0.0251477223	-3.7526604097	-0.239914
C	-1.1625323684	-1.034759579	-3.9113646048	 0.235066
N	-1.9592142618	-1.8699940202	-3.9731560476	-0.30951
H	 1.9073181722	 0.8780744219	-0.2704670076	 0.149172
H	 0.6256941037	 2.0999134387	-0.2621764493	 0.149169
H	 1.0308316561	 1.2314847583	 1.2537049335	 0.168887
H	-1.3919005757	-1.3048948199	 0.5591456114	 0.104294
H	-1.1083530976	-0.9938368515	-1.5110546011	 0.137441
H	-0.5092275978	 0.9211723068	-4.2745952855	 0.166181
H	 0.7575743681	-0.2865667033	-4.2825905051	 0.166181
