23
gdb 59594	2.2367	1.38977	1.13071	1.4804	85.61	-0.2415	0.0135	0.255	1230.4612	0.205675	-388.303209	-388.293534	-388.29259	-388.337343	37.29	
C	 0.9614058863	-0.382332168	-1.1785269598	-0.393503
C	 0.0338034934	 0.0266731518	-0.0208091563	 0.033072
C	-0.0046348751	 1.5572683684	 0.1013961885	-0.399165
C	-1.4011712355	-0.5525403601	-0.0954099009	-0.030677
C	-2.1003258623	-0.3586574628	-1.4730900658	-0.273608
C	-2.0999754967	-1.7390065402	-2.0840469623	-0.057083
C	-1.7653608526	-2.6799243832	-1.2042702397	-0.115486
C	-1.4776972545	-2.1031811281	 0.1613949744	 0.080824
O	-0.3653776712	-2.6832410709	 0.8314892554	-0.430489
H	 1.9763363373	-0.0134719801	-0.9971257519	 0.113357
H	 1.0232217921	-1.4658027395	-1.3193703933	 0.096732
H	 0.6292291598	 0.0401699337	-2.1328325861	 0.116857
H	 0.4668224667	-0.3700118525	 0.9049291551	 0.088594
H	-0.5889058916	 1.8726393365	 0.9720777937	 0.110968
H	 1.0052592075	 1.9672775864	 0.2086665137	 0.108682
H	-0.4529434522	 2.0208398878	-0.7852743184	 0.111952
H	-1.9749856384	-0.0444498918	 0.6859136899	 0.068275
H	-3.130776919	-0.0007826377	-1.3447203051	 0.106964
H	-1.6070541417	 0.3849665235	-2.1096299653	 0.101916
H	-2.3865539375	-1.9183176899	-3.1151069147	 0.093666
H	-1.7333782433	-3.7486733478	-1.3867882937	 0.095586
H	-2.3155128252	-2.314668525	 0.8391510039	 0.092044
H	 0.3758089438	-2.7007428003	 0.2178608587	 0.280521
