15
gdb 129468	4.77935	1.02676	0.86993	5.1926	66.45	-0.2506	0.0042	0.2549	1256.063	0.115211	-450.193087	-450.185038	-450.184094	-450.226759	28.818	
N	 0.1273068308	 1.2540075363	-0.1214240305	-0.517444
C	-0.1265337592	 0.0254463107	 0.3955388195	 0.428245
O	 0.387640734	-0.3654117468	 1.4310500578	-0.370371
C	-1.1474225872	-0.8034501243	-0.3862364653	-0.447728
C	-0.9230001996	-2.2802311379	-0.3035181895	 0.38606
N	-1.2929453342	-3.1672485701	-1.2144143889	-0.330443
C	-0.9010501397	-4.3465002958	-0.6563439415	 0.019683
N	-0.3171426678	-4.2462444596	 0.5268023956	-0.21849
N	-0.3492550944	-2.9107556814	 0.7386296988	-0.213894
H	 0.7663488494	 1.8572258988	 0.3708289595	 0.270745
H	-0.2586110856	 1.5641212141	-0.9953613524	 0.269799
H	-2.1328275093	-0.556776159	 0.034243542	 0.164255
H	-1.1847721086	-0.5211455374	-1.4413565801	 0.142922
H	-1.0477005012	-5.3022703712	-1.1366889004	 0.12185
H	 0.0782077425	-2.4650533565	 1.5381898553	 0.29481
