19
gdb 104502	1.96235	1.2774	0.97637	1.9606	76.9	-0.2574	0.0456	0.3029	1303.8359	0.155805	-422.972801	-422.962698	-422.961754	-423.008169	36.806	
C	 0.7158378551	 1.8439601808	 1.8923979201	-0.429805
C	 0.1503725096	 0.5074545302	 1.4870951252	 0.035428
O	 0.421361908	 0.0418441367	 0.1527314208	-0.312397
C	 0.9122811936	-0.7324942123	 1.2635518845	 0.34631
C	 2.4250609512	-0.8117627823	 1.3220550105	-0.134043
O	 2.920932036	-1.5184235833	 0.1951129529	-0.418738
C	 0.2029955537	-2.0773662914	 1.4282317186	-0.419113
C	 0.2648138291	-2.5779833947	 2.7961476413	 0.307371
C	 0.3304425518	-2.9678899538	 3.9313142418	-0.459186
H	 1.7435609972	 1.9779487037	 1.5518712532	 0.130805
H	 0.1106073353	 2.6482937816	 1.4615679341	 0.132929
H	 0.6883299801	 1.9515114246	 2.9818992031	 0.131067
H	-0.8921238834	 0.3647263742	 1.7814715198	 0.091053
H	 2.8663545703	 0.1899708226	 1.3877719989	 0.091997
H	 2.7337484572	-1.37847925	 2.2056463399	 0.127893
H	 2.6035727318	-1.0444203228	-0.5828177324	 0.293592
H	-0.8383396146	-1.9643815292	 1.1081110264	 0.136444
H	 0.6750080917	-2.7935731457	 0.7448908747	 0.149947
H	 0.3814311361	-3.3246675388	 4.9300780066	 0.198448
