16
gdb 33717	6.19225	0.91988	0.91986	3.8155	83.51	-0.2763	0.0112	0.2876	1260.5387	0.124457	-363.548434	-363.540634	-363.53969	-363.580652	30.31	
C	 0.0194149493	-1.1364469004	-0.0098215154	-0.346342
C	 0.0023089912	 0.0660334706	 0.0006207436	 0.058639
C	-0.0200024568	 1.4979665168	 0.0118965344	 0.221685
C	-0.64480844	 2.4304246578	 1.1053223116	-0.281494
C	-0.0494786999	 3.3879289002	 0.0266154308	 0.200429
C	 1.2105277934	 2.4679326134	 0.0050876943	-0.281404
C	-0.6703416798	 2.4468320795	-1.0518577887	-0.281353
C	-0.071923788	 4.82752562	 0.0376551341	 0.160207
N	-0.0900309981	 5.9838200638	 0.0464303775	-0.346692
H	 0.0357811705	-2.1983164274	-0.0181654037	 0.184358
H	-1.7328195322	 2.415554606	 1.192309628	 0.11868
H	-0.1532392669	 2.4332804106	 2.0800052425	 0.118668
H	 1.829575605	 2.4733838258	 0.9041517239	 0.118668
H	 1.8089488403	 2.4871788557	-0.9076718457	 0.118637
H	-0.202057111	 2.4646129779	-2.0377364912	 0.118653
H	-1.760096437	 2.4331112197	-1.113087946	 0.118661
