22
gdb 117933	3.02463	0.89653	0.78865	2.4607	80.48	-0.2287	0.0391	0.2678	1558.382	0.192174	-441.513033	-441.501764	-441.50082	-441.550534	39.052	
C	 0.0229846696	 1.5581627651	 0.1685143021	-0.369355
C	-0.0026037786	 0.0340885444	 0.0591655033	-0.309477
C	-1.4312450742	-0.5008250855	-0.0645885229	 0.421699
O	-2.3848901838	 0.2620092716	-0.1475054595	-0.395351
N	-1.6090899176	-1.8592252341	-0.0753800725	-0.080298
C	-0.5485805636	-2.8535686666	-0.0228597426	-0.350895
C	-2.9790184167	-2.3606377416	-0.1326521985	-0.165005
C	-3.5020924075	-2.5427646509	-1.5525602752	-0.071119
O	-2.7565246282	-3.5794946533	-2.1817355587	-0.418433
H	 1.0538448752	 1.9182239378	 0.2363958052	 0.100699
H	-0.454207668	 2.0178236568	-0.6994954657	 0.132679
H	-0.5231185344	 1.8954167952	 1.052680713	 0.129272
H	 0.578030737	-0.2910563837	-0.8137100846	 0.121362
H	 0.4853720107	-0.4211238104	 0.929424604	 0.11738
H	 0.4260878898	-2.3920449509	-0.1698140608	 0.132687
H	-0.5380186964	-3.3748425637	 0.9448751893	 0.118282
H	-0.7042586483	-3.5918941877	-0.8130486215	 0.155846
H	-3.0156763839	-3.321483664	 0.3925592857	 0.104253
H	-3.6240584322	-1.6474697428	 0.3842991194	 0.135206
H	-4.5730914579	-2.7973996294	-1.504507742	 0.086641
H	-3.4037636444	-1.5903788195	-2.0898527801	 0.114324
H	-2.9751109967	-3.5838357969	-3.1177340276	 0.289602
