14
gdb 49367	2.02269	1.80679	1.46595	4.7508	64.8	-0.2612	-0.0581	0.203	951.7494	0.097654	-473.815583	-473.806998	-473.806054	-473.849457	29.277	
O	-0.379715372	 0.6364403846	 0.8093643779	-0.231768
C	 0.4323546883	 0.8348990824	-0.0570231118	 0.147945
C	 1.3426595258	 2.0398905694	-0.08276884	-0.09722
C	 1.469630903	 2.92059651	 1.1402813927	-0.137675
C	 0.7107629801	 2.6176127676	 2.4088584601	 0.167365
O	 1.1296433332	 1.8943037909	 3.2736426274	-0.242007
N	 2.5520210369	 2.0622049736	 0.7233876704	-0.085581
C	 3.024840924	 0.9267595671	 1.3908432525	 0.162238
O	 2.9179673329	-0.1881423805	 0.9455814031	-0.291475
H	 0.5377553875	 0.1597072908	-0.9278015164	 0.11807
H	 1.4585509466	 2.4909849413	-1.0679639109	 0.124763
H	 1.6110044508	 3.9883096505	 0.9661554378	 0.131311
H	-0.238309957	 3.180505236	 2.5149042232	 0.107798
H	 3.5845314401	 1.1844544163	 2.301220014	 0.126237
