12
gdb 2844	5.36722	1.73345	1.45968	2.729	51.24	-0.2867	-0.0108	0.2759	791.5162	0.089266	-360.488871	-360.481917	-360.480973	-360.520302	23.91	
O	 0.0385613037	 1.3858760743	-0.3033208247	-0.410121
C	 0.0551452209	 0.0987733142	 0.2830426273	-0.100129
C	-1.3242139973	-0.5137885464	 0.266903535	 0.049329
O	-1.7621686808	-1.0322235173	-0.9950896447	-0.234942
C	-1.56839297	-1.959290749	 0.0729333007	-0.098464
C	-0.477708892	-2.9018239505	-0.0686024925	 0.300991
N	 0.3761376689	-3.6750422785	-0.1626042278	-0.320999
H	-0.1863140211	 1.2762507799	-1.2339979941	 0.297523
H	 0.765698459	-0.5756329013	-0.2138977042	 0.121928
H	 0.3837144483	 0.2333952478	 1.3189485926	 0.127904
H	-2.0919326397	 0.0450331322	 0.8027020593	 0.121216
H	-2.4794548898	-2.3957777653	 0.4780120131	 0.145765
