18
gdb 28920	2.30169	1.81748	1.0221	1.2139	84.94	-0.1807	0.0317	0.2124	1134.7313	0.151594	-398.195671	-398.187425	-398.18648	-398.227695	33.402	
N	 0.0520577089	 1.4256026411	 0.0308266566	-0.61018
C	 0.0102594137	 0.0111605373	-0.0007559827	 0.239656
C	-1.1874519772	-0.7057539942	 0.0217873247	-0.213411
C	-1.169668305	-2.0966797467	 0.0478410547	-0.111621
C	 0.0404998398	-2.7817647199	 0.0051005675	-0.213411
C	 1.245477254	-2.0771380252	-0.0175489299	 0.239672
N	 2.5053465046	-2.722015879	-0.0025144094	-0.610176
C	 1.2334036803	-0.6750091194	 0.0149826382	 0.208037
N	 2.4481639147	 0.0433837797	 0.0292207187	-0.620344
H	 0.6470716833	 1.8080752506	-0.6969974266	 0.246957
H	-0.8692757136	 1.836281065	-0.0505224011	 0.239885
H	-2.1303802102	-0.1668343232	 0.0198423059	 0.071818
H	-2.1029179226	-2.6488576926	 0.0681449695	 0.082841
H	 0.0585942086	-3.8675820814	-0.0099020733	 0.071818
H	 2.4209291699	-3.7261927256	-0.0954129712	 0.239886
H	 3.1220651367	-2.375948477	-0.7304893135	 0.246958
H	 3.1741341112	-0.4917902381	 0.4952959365	 0.245808
H	 2.3320862729	 0.9318230586	 0.5065787755	 0.245808
