23
gdb 63933	2.25961	1.56634	1.36886	1.8797	84.57	-0.2366	0.069	0.3056	1120.3729	0.204544	-388.266935	-388.257561	-388.256617	-388.300784	36.739	
C	-0.5193443059	 1.4995128165	 0.1290860989	-0.456952
C	-0.0488898007	 0.0513057614	-0.0029983621	 0.279558
C	-1.2132386234	-0.8226121314	-0.4816818168	-0.44447
C	 1.2295574468	-0.1816021869	-0.8856038016	-0.289674
C	 1.9439341785	-0.8508527373	 0.3074151047	 0.077826
O	 2.7750834408	 0.069869113	 1.0403365538	-0.292019
C	 1.6998296096	 0.3798084038	 1.9536473308	-0.128399
C	 0.7183978759	-0.5768857803	 1.2330211709	 0.263289
C	 0.0316563205	-1.5959665094	 2.1190610531	-0.504255
H	 0.3009362511	 2.1851748336	 0.3570315621	 0.120572
H	-0.9734844963	 1.8390130632	-0.8089157134	 0.113482
H	-1.2758880708	 1.6032358875	 0.9162841554	 0.110073
H	-1.5785212357	-0.456429105	-1.4478591386	 0.112712
H	-0.9149281144	-1.8664643408	-0.6209506348	 0.112386
H	-2.0533349547	-0.8033795354	 0.2215941313	 0.112033
H	 1.0564159777	-0.8352162311	-1.7454857635	 0.093982
H	 1.742837057	 0.7219149007	-1.2233487474	 0.104689
H	 2.4246435818	-1.8227255365	 0.1621372456	 0.06876
H	 1.9445659373	 0.0634037923	 2.976666083	 0.093411
H	 1.4575410627	 1.4481084804	 1.9696007924	 0.096973
H	-0.7386870361	-1.1216382834	 2.7401874551	 0.11787
H	-0.451982383	-2.3926257219	 1.5481779412	 0.119238
H	 0.754061251	-2.0649494528	 2.7959309698	 0.118915
