17
gdb 66441	2.62716	1.69156	1.35921	0.2479	72.13	-0.2126	0.0637	0.2762	995.4676	0.133403	-421.707882	-421.69968	-421.698736	-421.739958	32.417	
C	-0.095012366	 1.4653959891	-0.0031428387	-0.524418
C	-0.0057564393	-0.0253418405	-0.0285412839	 0.305334
C	 0.9239335211	-1.0022734798	-0.8150928434	-0.253394
C	 0.8085513334	-2.0243438143	 0.3250541091	-0.137278
C	-0.1000656493	-1.047535778	 1.1198147449	-0.239297
C	-1.1163032248	-1.0548203459	-0.0227579299	 0.236685
O	-2.4613284141	-0.7965007309	-0.0351015704	-0.455122
C	-0.1751403679	-2.0609803015	-0.8213027139	 0.30895
O	-0.4106285534	-3.1125504023	-1.6661981361	-0.454391
H	 0.8272256098	 1.9197384817	 0.3765447308	 0.119715
H	-0.2819285343	 1.8707675775	-1.0046109019	 0.120871
H	-0.9202303546	 1.7860613451	 0.6410645212	 0.129425
H	 1.7375919053	-0.8358689015	-1.5104636587	 0.085281
H	 1.5119668685	-2.7846594053	 0.63773644	 0.091092
H	-0.2425267689	-0.8757444985	 2.1797215288	 0.08404
H	-2.910442589	-1.4817589479	 0.4737354455	 0.291721
H	-0.6440558164	-2.7608222569	-2.5333252534	 0.290787
