14
gdb 123313	6.81606	1.08162	0.94476	3.9199	79.63	-0.2367	-0.0146	0.2221	1178.4633	0.102254	-395.680343	-395.673056	-395.672112	-395.71245	26.91	
C	 0.0779851933	-1.1664671251	-0.3125965368	-0.420452
C	 0.028887416	 0.0154607026	-0.09740234	 0.305759
C	-0.0221692384	 1.408931394	 0.1566906169	 0.160737
N	-1.1974210706	 2.076361185	 0.1798737241	-0.327035
N	-0.7403680868	 3.3104524236	 0.4486763597	 0.080116
C	-0.9770703758	 4.7464955693	 0.6950824414	-0.16808
C	 0.6017930752	 4.8463420601	 0.8486123635	-0.37524
C	 0.5820974398	 3.3488742501	 0.5691885865	 0.360187
N	 1.1201611486	 2.1610551589	 0.3942253613	-0.40381
H	 0.1227467648	-2.210254433	-0.5023652534	 0.194698
H	-1.4043650836	 5.2748763593	-0.1594780793	 0.148523
H	-1.5546749307	 4.9484383395	 1.5993225244	 0.148521
H	 1.0924931185	 5.4632819446	 0.0938125546	 0.148056
H	 0.9429849197	 5.1393954111	 1.8430053571	 0.148021
