16
gdb 3603	5.68208	1.78299	1.52371	1.6422	61.59	-0.2285	0.0807	0.3092	824.8743	0.136038	-325.71242	-325.705244	-325.7043	-325.743924	25.856	
C	-0.178812664	 1.4907161299	-0.1358277538	-0.31056
N	 0.0280178916	 0.0584192048	 0.0329229549	-0.083753
C	 1.3711807477	-0.4671862473	-0.1643403101	-0.25873
C	 0.7595417968	-0.443027549	 1.1972128589	-0.007536
C	 1.3045833781	 0.4532633534	 2.2638976794	 0.071049
C	 0.7104006208	 0.4792662905	 3.6084353606	-0.18404
O	 1.9309023122	-0.2191549806	 3.361205506	-0.233129
H	 0.7001690202	 2.1150331926	 0.0883305708	 0.100748
H	-0.4625174759	 1.6787077512	-1.1761599839	 0.127207
H	-1.005009531	 1.8172135111	 0.5036784756	 0.125502
H	 1.4499035329	-1.3966275504	-0.7221149355	 0.119048
H	 2.1753375097	 0.245060958	-0.3522849714	 0.107216
H	 0.3553318175	-1.3696309755	 1.6028882911	 0.097104
H	 1.8404644922	 1.3407563986	 1.9298886612	 0.096768
H	 0.7973756558	 1.37425951	 4.2230234916	 0.116121
H	-0.1522340447	-0.1508018175	 3.8225649245	 0.116985
