20
gdb 104378	2.42945	1.47782	1.20838	1.838	74.78	-0.2139	-0.0262	0.1877	1129.0512	0.170095	-440.288797	-440.279375	-440.278431	-440.323012	34.893	
C	 0.1451485674	 1.5073657207	 0.1264834944	-0.256734
O	-0.0236548148	 0.1016212049	 0.0101730989	-0.289552
C	 0.5707061654	-0.5467133197	-1.104542726	 0.298934
C	 2.0618172787	-0.2381933258	-1.2722151592	-0.454365
C	 0.2939056837	-2.0600854329	-0.9538722249	-0.232386
N	 0.0306407343	-2.600301893	-2.2980692513	-0.297002
C	-0.6915342516	-1.5395239142	-3.0080136659	-0.282757
C	-0.192452599	-0.2164475385	-2.4194090788	 0.357097
O	-0.3504024355	 0.8855004798	-2.8820750558	-0.323584
H	 1.1925485957	 1.7825577784	 0.3087525564	 0.106043
H	-0.2139378156	 2.038220505	-0.7602168248	 0.14279
H	-0.446609518	 1.807499438	 0.9947032959	 0.125381
H	 2.5845241732	-0.3940209548	-0.3230317001	 0.128274
H	 2.5044236724	-0.9042495242	-2.0207477063	 0.111882
H	 2.2256070432	 0.7886046011	-1.6090537145	 0.138902
H	 1.1138514651	-2.6005423866	-0.4763137222	 0.107972
H	-0.6005454026	-2.1780590803	-0.3318264354	 0.123173
H	 0.9128651502	-2.7736597035	-2.7692431291	 0.223832
H	-0.5521515913	-1.5817576942	-4.0906118342	 0.132733
H	-1.7712860909	-1.6203867602	-2.8140072971	 0.139367
