16
gdb 126383	2.76858	1.48169	0.97658	1.3553	75.41	-0.2584	-0.086	0.1724	1166.477	0.123976	-434.051266	-434.043033	-434.042089	-434.084778	29.933	
C	-0.01345792	 1.5336909078	 0.1258424956	-0.383514
C	 0.1053364398	 0.0174225107	 0.0005597747	-0.262862
C	 0.7244433123	-0.4580371474	-1.2783619687	 0.287875
N	 1.1154265829	 0.373823131	-2.1823795539	-0.315142
C	 1.6742558494	-0.1723331126	-3.3270627657	 0.096546
N	 1.8609381806	-1.4082188416	-3.619555824	-0.071038
O	 1.442434894	-2.3249368193	-2.6494321955	-0.272801
C	 0.8709636223	-1.9173030686	-1.4665587134	 0.379479
N	 0.4930955475	-2.7522604229	-0.5907702577	-0.51538
H	 0.9664268215	 2.0147190917	 0.0709698013	 0.131052
H	-0.6263208253	 1.9517245413	-0.6767857721	 0.131068
H	-0.4731251314	 1.7936325675	 1.083072614	 0.116206
H	 0.6890502806	-0.4129977859	 0.8247447738	 0.146297
H	-0.8717653985	-0.4746965005	 0.0920870571	 0.146297
H	 2.0039624113	 0.526289303	-4.089178374	 0.149527
H	 0.6739195729	-3.7109143744	-0.8946806215	 0.236389
