17
gdb 37645	3.26979	2.37181	2.10755	1.1635	71.57	-0.2141	0.0533	0.2674	747.7544	0.140772	-380.776947	-380.771821	-380.770877	-380.806055	23.279	
C	-0.054097413	 1.5155469525	 0.0164071474	-0.174682
C	 1.4985519166	 1.5166300594	-0.0084039325	-0.08477
C	 2.023076391	 1.3041432443	 1.4049517787	-0.037047
C	 1.2390349775	 0.3353130316	 2.2073536545	-0.058278
C	 0.4883918946	-0.6026679804	 1.2414989301	-0.029993
C	 1.8705419442	-0.8567877613	 0.6036129356	-0.016843
C	 1.3811755489	 0.0581531818	-0.5362803348	 0.009489
N	-0.0582899003	 0.0160251423	-0.0327060407	-0.159862
N	 2.6029616817	-0.0394387507	 1.6519229163	-0.165309
H	-0.5472834112	 1.9678518139	 0.8826771916	 0.103998
H	-0.5083449622	 1.8986450507	-0.9017045137	 0.109403
H	 2.0434201886	 2.2735117321	-0.5748952401	 0.072327
H	 2.5330073715	 2.110860923	 1.9208163957	 0.096686
H	 1.0639154357	 0.4314897931	 3.2739346773	 0.092529
H	-0.1453859742	-1.3682256873	 1.6873000188	 0.082094
H	 2.3052118411	-1.8330195254	 0.4040799916	 0.084792
H	 1.5662936498	-0.1625144795	-1.5889623958	 0.075465
