18
gdb 23023	3.59083	0.82892	0.77909	1.4273	73.02	-0.2471	-0.0081	0.239	1485.3246	0.144845	-476.151442	-476.141628	-476.140684	-476.186901	35.232	
C	 1.1639675038	 0.2451783312	 0.4126741878	-0.488472
C	-0.3053051926	-0.0362483782	 0.2783016867	 0.335259
N	-1.2236894634	 0.5581587816	 0.9446016967	-0.16913
O	-0.6939039293	 1.4526451799	 1.8783602976	-0.39183
C	-0.8374230407	-1.0125682913	-0.7188662788	-0.010819
O	 0.0061052734	-1.3894319081	-1.8125257967	-0.265882
C	-0.3974302219	-2.41456184	-0.8907976	 0.033695
C	 0.6972512739	-3.1056970163	-0.1182436946	-0.0991
O	 1.3966352514	-4.0224842493	-0.9446339531	-0.41624
H	 1.7083891965	-0.1526678766	-0.4433690237	 0.140077
H	 1.3222059755	 1.3244146482	 0.4831173975	 0.149005
H	 1.5677485539	-0.1910806945	 1.333325142	 0.145948
H	-1.4872714505	 1.8442886203	 2.2593241416	 0.309982
H	-1.8712523734	-0.8034065493	-0.9903380289	 0.109806
H	-1.131977671	-3.1040961456	-1.3119544438	 0.105613
H	 1.3767663788	-2.3770308803	 0.3394063142	 0.099874
H	 0.2512214977	-3.6994315828	 0.6871583783	 0.119424
H	 1.7627765678	-3.5172766388	-1.6791375529	 0.292789
