18
gdb 59692	2.1114	1.56849	1.00174	2.595	72.03	-0.2609	0.0065	0.2674	1186.0933	0.146562	-439.078491	-439.069209	-439.068265	-439.112982	33.392	
C	-0.0715558425	 1.6135309263	 0.1886877461	-0.397277
C	-0.0639152032	 0.0962041543	 0.0675641127	 0.092528
O	 0.4213416851	-0.2516927804	-1.2223611068	-0.436789
C	 0.847890179	-0.5253828523	 1.1275956164	 0.128861
O	 0.3644115025	-0.3213612879	 2.4742471251	-0.279925
C	 0.1756248853	-1.7276950051	 2.6944288319	-0.077813
C	 0.7941790235	-2.0769538332	 1.3129932875	-0.240494
C	-0.016915848	-2.8294632997	 0.3742293342	 0.287727
N	-0.6722899094	-3.3966631442	-0.3924796024	-0.339596
H	 0.9250466802	 2.0125906405	-0.0263230678	 0.124947
H	-0.7746368126	 2.0456423905	-0.5273988436	 0.125938
H	-0.3613847227	 1.9113746846	 1.1996668198	 0.136045
H	-1.0842996629	-0.2858673572	 0.2195686396	 0.084318
H	 0.0799078657	-1.1235224712	-1.450329705	 0.301719
H	 1.8677543161	-0.1438999889	 0.9991392297	 0.099026
H	 0.7419838893	-2.0949950105	 3.5562023829	 0.123164
H	-0.8801389981	-1.9969349779	 2.8075595411	 0.127317
H	 1.7822280527	-2.5344324179	 1.3839826888	 0.140304
