18
gdb 65197	2.96278	1.1014	0.99962	3.9792	74.41	-0.246	-0.025	0.2209	1246.849	0.146172	-439.047158	-439.038365	-439.037421	-439.08103	33.072	
O	 0.2691065315	 1.3216457854	 0.3223073073	-0.467309
C	 0.0980957708	-0.0334103761	 0.030108366	 0.447119
C	 1.0199878783	-0.5926614518	-1.0057807582	-0.306463
C	 1.1956679037	-0.9900005439	 0.4475411668	-0.327194
C	-1.3267908768	-0.5016165303	 0.1085214161	-0.09813
N	-2.1914087875	 0.2776882242	 0.9852422046	-0.361986
C	-2.5051709772	 0.2457889473	-0.4618288581	-0.119618
C	-2.3908134659	 1.5261922382	-1.2226364567	 0.164393
O	-2.9928082871	 1.7159579937	-2.2514412834	-0.262436
H	-0.3016695664	 1.4986828002	 1.0839822644	 0.290677
H	 0.6320300707	-1.3263242544	-1.7042823035	 0.118023
H	 1.7406953352	 0.0989955987	-1.4263045515	 0.133207
H	 2.0290641455	-0.5530348033	 0.9847884441	 0.125075
H	 0.9342249825	-2.0003631191	 0.7451486462	 0.109452
H	-1.4409691894	-1.5842747549	 0.102987929	 0.097681
H	-2.840051168	-0.3005026775	 1.5101360981	 0.249287
H	-3.3363883245	-0.3715498948	-0.7954220998	 0.10747
H	-1.7135119653	 2.2805241586	-0.7817309714	 0.100751
