15
gdb 27431	2.57834	1.66757	1.06745	1.8203	83.69	-0.213	-0.077	0.1361	1074.9897	0.114859	-413.000398	-412.992811	-412.991867	-413.032417	29.221	
N	 0.0704385441	 1.3185982957	-0.3362330401	-0.54101
C	-0.0434828958	-0.0172212769	-0.0285033936	 0.368366
C	-1.267654707	-0.6321328424	 0.0398554992	-0.179886
C	-1.5192301166	-2.0496813704	 0.1657741315	 0.233977
N	-2.6477903671	-2.49813443	 0.5943872468	-0.518832
C	-0.4865441171	-2.9430216011	-0.4282620277	-0.029891
N	 0.7890959619	-2.8678445302	-0.3583792996	-0.215554
C	 1.4690580518	-1.8217342053	 0.2226932638	 0.083308
N	 1.1853645676	-0.5697175077	 0.2840900411	-0.290945
H	 0.9090269365	 1.7629905415	 0.0033524561	 0.261594
H	-0.7640260248	 1.8819315587	-0.3133617141	 0.259178
H	-2.1591702467	-0.0123518005	-0.0025022423	 0.099313
H	-2.6860911185	-3.5166437327	 0.5024339184	 0.208825
H	-0.8918522858	-3.7919718719	-0.9888985205	 0.132085
H	 2.4526630576	-2.1096667167	 0.5930269509	 0.129473
