18
gdb 51952	5.56115	0.6674	0.65418	3.7484	76.45	-0.2503	-0.0312	0.2191	1714.7269	0.146085	-439.113883	-439.104364	-439.10342	-439.149998	33.223	
O	-0.3567501676	 0.3372189566	 0.3906825577	-0.231017
C	 0.1423439276	 1.3848673882	 0.0770930133	 0.152317
C	 1.5212491781	 1.5216507953	-0.5508745801	-0.243573
N	 1.5809140594	 2.5911280833	-1.5216463345	-0.35045
C	 2.312788554	 3.7317837501	-1.3050315687	 0.447872
O	 2.9332958341	 3.9194979783	-0.2709408953	-0.389098
C	 2.2894073112	 4.7188374464	-2.4246298564	-0.131881
C	 2.3445766951	 6.1884074074	-2.0463728926	-0.248001
C	 3.5486857186	 5.5383590378	-2.6430606813	-0.248082
H	-0.3776185606	 2.3584824788	 0.2300659558	 0.084803
H	 2.2290135095	 1.7922522978	 0.2432574389	 0.17614
H	 1.8217740031	 0.5574686005	-0.9733758556	 0.13101
H	 1.1116592874	 2.4733023291	-2.4043928573	 0.251366
H	 1.7092688148	 4.452880428	-3.3024178446	 0.079026
H	 1.7652009807	 6.8770516442	-2.6502980006	 0.11736
H	 2.3677968248	 6.3994721003	-0.983911652	 0.14221
H	 4.3743162622	 5.3149836911	-1.9780600336	 0.142722
H	 3.8176422578	 5.7693619565	-3.6672046533	 0.117276
