23
gdb 116007	2.22116	1.16444	0.7975	1.4968	88.52	-0.2221	0.0373	0.2594	1494.1879	0.205671	-388.306288	-388.296291	-388.295347	-388.34139	36.976	
C	 0.6646015368	-0.3263088628	-1.419806527	-0.383879
C	 0.0281921599	 0.0356714022	-0.0740689638	-0.187136
C	-1.4484107687	-0.3800740876	 0.0360884481	-0.062574
C	-1.6792450208	-1.914258796	-0.0374653889	-0.215864
C	-2.8641597364	-2.2112231388	 0.9134476021	-0.263842
C	-2.8866139307	-1.0014821493	 1.8135518355	-0.164022
C	-2.12789852	-0.0099417218	 1.3468131547	 0.313251
C	-1.9821316428	 1.3520632905	 1.9467665881	-0.183312
O	-2.8465693366	 1.484425621	 3.0619339834	-0.415757
H	 1.705795501	 0.0075722738	-1.4682904589	 0.109683
H	 0.654927836	-1.4075236268	-1.5910954302	 0.11993
H	 0.1245157781	 0.1445588487	-2.2491806274	 0.112403
H	 0.5920412737	-0.4360171461	 0.7421375753	 0.094487
H	 0.11457913	 1.119132563	 0.0782552965	 0.091057
H	-1.9875937349	 0.1180350957	-0.7878911129	 0.068198
H	-1.8510798282	-2.269588038	-1.0566839246	 0.094053
H	-0.7813637428	-2.4228046277	 0.3338179198	 0.097983
H	-3.8133369034	-2.3039557462	 0.3656177327	 0.101637
H	-2.7371635669	-3.1533477088	 1.4594109812	 0.098127
H	-3.4942291674	-0.9330517812	 2.7071398192	 0.102969
H	-0.9310021232	 1.5185366863	 2.2398288852	 0.095524
H	-2.2050565151	 2.1118544518	 1.1744861959	 0.089857
H	-2.6669255574	 2.3320042284	 3.4779892059	 0.287229
