15
gdb 43861	3.80049	1.02559	0.89389	1.9533	72.9	-0.2507	-0.0344	0.2163	1258.4286	0.108855	-420.572327	-420.564025	-420.563081	-420.605735	31.088	
O	 0.1183358139	 0.0542403564	-0.5802043358	-0.282767
C	 0.0516292146	 1.158626472	-0.1303997779	 0.406959
C	-1.1157504505	 2.0604060203	 0.322513134	-0.437664
C	-0.0538772073	 3.0447218782	 0.8326145792	 0.444034
C	 1.1081735699	 2.2172192582	 0.259059156	-0.439935
O	-0.1584800912	 4.4442771424	 0.7192065113	-0.27076
C	-0.0870078995	 3.8766935537	 2.0488125417	-0.271468
C	-1.2639765612	 3.9567151815	 2.868152729	 0.347349
C	-2.23824705	 4.0029312077	 3.5708032026	-0.420866
H	-1.7068708861	 2.4496242409	-0.513148291	 0.150964
H	-1.7941148127	 1.6333016933	 1.0661399318	 0.149066
H	 1.8883971578	 1.8842281126	 0.9486084005	 0.141158
H	 1.5799228587	 2.6840525045	-0.6124718034	 0.151492
H	 0.8557645529	 4.0742502306	 2.5578264216	 0.123145
H	-3.1007924993	 4.0538684677	 4.1889892604	 0.209293
