16
gdb 27766	2.25807	1.82218	1.03069	1.8515	73.53	-0.1679	0.0518	0.2197	1100.1978	0.124906	-437.871374	-437.863189	-437.862245	-437.903974	30.712	
O	-0.0166005236	 1.3737225708	-0.1222045054	-0.432061
C	 0.0726585246	 0.0258356732	 0.0084390282	 0.34597
C	 1.1535043987	-0.8423323185	 0.0317934577	-0.43178
C	 0.6384678963	-2.1770545961	 0.2160365512	 0.204144
O	 1.3624523156	-3.3260386747	 0.3625413289	-0.447158
C	-0.7252254782	-2.0738320922	 0.210148214	 0.174622
C	-2.0975195255	-2.4284871403	 0.7544699581	-0.354326
C	-2.3710390729	-0.8807810811	 0.713130936	-0.168146
N	-1.054485248	-0.7246423114	 0.0491891977	-0.058314
H	 0.8748051555	 1.7345646306	-0.1464864013	 0.304216
H	 2.1848863364	-0.5755222082	-0.1547339895	 0.080047
H	 2.2926663325	-3.0916133348	 0.4226909255	 0.294112
H	-2.7437420137	-3.0222369035	 0.1013233554	 0.116663
H	-2.1186035345	-2.8600172341	 1.7583817371	 0.121041
H	-3.2111383622	-0.5356746577	 0.1060958686	 0.122979
H	-2.4089064909	-0.412563242	 1.7002725877	 0.127991
