16
gdb 24185	3.25856	2.27388	1.50884	1.8209	79.54	-0.2017	-0.0219	0.1798	843.4961	0.127975	-363.565907	-363.559983	-363.559039	-363.595798	25.134	
C	-0.1138944535	 1.5052515765	-0.1333183153	-0.175878
C	 1.4438000051	 1.7498458844	 0.0484179091	-0.145242
C	 2.0613250136	 2.2857962526	 1.3167785101	-0.106345
C	 2.1282130018	 1.3151735042	 2.2677114407	-0.15341
C	 1.4795449505	 0.0996524798	 1.7600632012	 0.09664
C	 1.3147094247	 0.3037138018	 0.4113380534	 0.102066
N	 0.0134581557	-0.0462183189	-0.0248626812	-0.118432
C	-0.5238253461	-0.7342143704	 1.0854173718	-0.092886
C	 0.3456692459	-0.7178596574	 2.146133024	-0.187546
H	-0.6955022167	 1.8870176922	 0.7020141553	 0.144802
H	-0.5210416286	 1.7982751227	-1.0996555536	 0.134391
H	 1.933705977	 2.069269258	-0.8717581386	 0.096939
H	 2.5295713975	 3.2616825315	 1.384621993	 0.095508
H	 2.5504407212	 1.4454536525	 3.2573309382	 0.10036
H	-1.4700630147	-1.2519930181	 1.0001753468	 0.108592
H	 0.1750449866	-1.2001896414	 3.0993538653	 0.10044
