16
gdb 82733	2.79589	1.90285	1.42476	2.4305	67.87	-0.2469	-0.0386	0.2083	907.2266	0.125792	-437.855577	-437.848727	-437.847783	-437.886728	27.383	
O	 0.0111442411	 1.4528305088	 0.0697301999	-0.441305
C	-0.0086868402	 0.0536974923	 0.0303820313	 0.058238
C	-1.4035611737	-0.5703817212	-0.0632448141	-0.102695
C	-2.0215841576	-0.2580077357	-1.4436931956	-0.162566
N	-1.5168924281	-1.5611000082	-2.0134089672	-0.137746
C	-1.1431744067	-1.9904269631	-0.6370834956	-0.060322
C	-0.0641477091	-1.72833444	-1.6320807311	-0.142991
C	 0.67877309	-0.5006861083	-1.2222093689	 0.368897
O	 1.6272861892	 0.0267314834	-1.7536624413	-0.344383
H	 0.7895574635	 1.7207685575	-0.4408366815	 0.295211
H	 0.5139054463	-0.3847012881	 0.9017436873	 0.096847
H	-2.0214421668	-0.4550527611	 0.8249591219	 0.091962
H	-3.1120625712	-0.301309375	-1.4535897209	 0.122818
H	-1.6818332727	 0.6475414522	-1.9543334417	 0.125511
H	-1.3912461339	-2.9610491022	-0.2249486875	 0.110083
H	 0.4232724699	-2.5121959012	-2.1981414949	 0.122441
