17
gdb 92409	2.40935	1.51913	1.31205	0.9835	74.8	-0.2489	0.0272	0.2761	1043.6553	0.134874	-421.750139	-421.741927	-421.740983	-421.783044	31.693	
O	 0.2129338256	 1.2732868529	-0.4095637418	-0.420039
C	 0.081092433	-0.0588761024	-0.0002335412	 0.067546
C	 0.2092651197	-0.3484654843	 1.5270059854	-0.274625
C	-1.28217654	-0.6836544469	 1.581890352	 0.059662
O	-2.0953407644	 0.5132902362	 1.6495385962	-0.308414
C	-2.4594191698	 0.4123172275	 0.250986254	-0.141077
C	-1.3967283606	-0.6688689457	 0.0151721824	 0.146696
C	-1.6634399777	-1.7951151037	-0.8291078036	 0.11552
C	-1.8668480647	-2.742641761	-1.5429049793	-0.374294
H	-0.1837860742	 1.8341863763	 0.2667983934	 0.293585
H	 0.7494590183	-0.6455260567	-0.6319958392	 0.106472
H	 0.8446670516	-1.2149324505	 1.7323619334	 0.115729
H	 0.5303182778	 0.4888017451	 2.1524452554	 0.110494
H	-1.6539540226	-1.486333411	 2.2229338427	 0.087029
H	-3.4849490598	 0.0461465144	 0.1255076094	 0.114588
H	-2.3316224805	 1.3551081602	-0.290627946	 0.112348
H	-2.0543742317	-3.5771096904	-2.1721852933	 0.188782
