20
gdb 13142	3.87961	1.223	1.02536	2.1783	72.08	-0.244	0.0779	0.3219	1211.9981	0.175185	-386.118699	-386.109452	-386.108507	-386.153605	32.394	
C	 0.0688136819	 1.4882694681	-0.0348811773	-0.38594
C	-0.0233525632	 0.003128168	 0.2699729445	-0.039556
O	-1.202115801	-0.5058439384	-0.3296126418	-0.248005
C	-1.3810185772	-1.8818863392	-0.1433226109	 0.073188
C	-1.9942289862	-2.3351884567	 1.2025988061	-0.098251
O	-3.186469072	-2.8064582194	 0.546320496	-0.29286
C	-2.694169095	-2.4198500214	-0.7627381153	 0.119065
C	-3.6080412552	-1.4380647206	-1.4672208127	-0.388809
H	 0.9732578987	 1.9131929332	 0.410406386	 0.116461
H	 0.1001421623	 1.6559933116	-1.1150811192	 0.128246
H	-0.7989245347	 2.0173793923	 0.3689006674	 0.128782
H	 0.8573458768	-0.5314740976	-0.1241172607	 0.08877
H	-0.0424765828	-0.1662585892	 1.3588206133	 0.091603
H	-0.4757010508	-2.4310285488	-0.4387200082	 0.068938
H	-1.4670757811	-3.1400604393	 1.7301367007	 0.09621
H	-2.2008302015	-1.5147574449	 1.901851266	 0.101503
H	-2.538337699	-3.3113117428	-1.3857619973	 0.072871
H	-3.7205102507	-0.5213570566	-0.8854321314	 0.129829
H	-3.2054247687	-1.1766074528	-2.451042827	 0.116847
H	-4.5928187706	-1.8945413753	-1.6067378481	 0.121107
