15
gdb 125744	3.29738	1.28318	0.93443	4.8891	76.25	-0.274	-0.062	0.212	1193.3284	0.111876	-416.830955	-416.822368	-416.821424	-416.864399	30.313	
C	 0.0060461739	 1.5046055868	-0.0298985914	-0.50089
C	 0.0033620934	 0.0118258839	 0.0240479501	 0.334776
N	-0.0312472795	-0.6964403504	-1.0814975671	-0.180396
O	-0.0239422632	-2.0252551087	-0.7038782978	-0.216249
C	 0.0157659679	-2.0803253985	 0.6469129641	 0.287247
C	 0.030213493	-3.3540817131	 1.2626358637	 0.236772
N	 0.0431112428	-4.3783895851	 1.8021470097	-0.333484
C	 0.0351584217	-0.8261219359	 1.1843528757	-0.008088
C	 0.0786957738	-0.4211546811	 2.6198250565	-0.519618
H	 0.9043583573	 1.9115489867	 0.4460943624	 0.144614
H	-0.0238201626	 1.8412863367	-1.0673723048	 0.160744
H	-0.860059895	 1.9166220386	 0.4985332028	 0.144606
H	 0.9697481292	 0.1788696693	 2.8345956352	 0.146974
H	-0.7926147815	 0.1873345236	 2.8856413292	 0.14692
H	 0.0934988388	-1.2954808929	 3.2743251918	 0.156074
