16
gdb 127219	3.2161	1.25157	0.9069	1.7288	84.22	-0.1969	0.0082	0.2051	1244.2098	0.124536	-396.925031	-396.916093	-396.915149	-396.958789	32.91	
C	-0.024683223	 1.4101095826	 0.1099593504	-0.31429
N	 0.0091316223	-0.0277844676	-0.0108851172	 0.053135
C	-0.0641055195	-0.7707118743	-1.1284345992	-0.142013
C	 0.0201482351	-2.1046751803	-0.747032516	 0.024453
C	-0.0197031271	-3.2675691987	-1.5401277217	 0.205867
C	-0.0605504264	-4.2908689981	-2.1774435059	-0.438664
C	 0.1499091713	-2.0394636086	 0.6752677642	 0.296234
N	 0.3296935966	-3.1131556406	 1.5272403893	-0.599784
N	 0.1373101985	-0.7867776287	 1.1143193331	-0.348467
H	 0.9086069443	 1.7786003186	 0.5460262465	 0.148915
H	-0.1560917184	 1.8450475424	-0.8821608273	 0.138179
H	-0.8552343141	 1.7164829618	 0.7524055183	 0.147962
H	-0.1707466225	-0.3279773239	-2.1059277154	 0.138604
H	-0.0827960966	-5.1833587947	-2.7513913815	 0.181423
H	-0.0720635656	-3.9747734677	 1.1860562032	 0.25512
H	 0.0726493952	-2.9160487823	 2.4840095891	 0.253325
