23
gdb 104781	1.92786	1.70153	1.13144	1.4661	84.76	-0.231	0.0829	0.3139	1220.0794	0.204412	-388.258492	-388.248903	-388.247959	-388.292608	36.935	
C	-0.3764118097	 1.6909422427	-0.8157104212	-0.385657
C	-0.1788557975	 0.3030709186	-0.1930438068	-0.227823
C	-1.4804978597	-0.4647688985	 0.0523568522	 0.419137
C	-2.2989040187	 0.1467390629	 1.1970236264	-0.220662
C	-3.6845864516	-0.4618150635	 1.4282526583	-0.39101
O	-2.3019540216	-0.5501794313	-1.1714581825	-0.338642
C	-2.3424276198	-1.9735487541	-1.0639404661	 0.113675
C	-0.9832824428	-2.5711356503	-1.2260965875	-0.320212
C	-1.405029892	-2.0013373211	 0.1149370543	-0.17416
H	 0.5905633623	 2.144277792	-1.0538797088	 0.108841
H	-0.955000321	 1.6116662403	-1.7400153709	 0.13787
H	-0.9028776955	 2.3772142654	-0.1457420153	 0.115521
H	 0.4612929307	-0.2901033075	-0.8530730742	 0.095697
H	 0.3557722293	 0.3865155984	 0.7621394291	 0.093421
H	-1.6945903055	 0.0659632272	 2.1108734134	 0.094784
H	-2.4136160134	 1.2179560607	 0.9983110047	 0.105651
H	-3.6310165394	-1.5131162716	 1.7258010436	 0.112209
H	-4.2077599098	 0.0801418356	 2.2218887037	 0.107999
H	-4.2869330087	-0.3958521608	 0.5187930984	 0.132059
H	-3.2836141199	-2.4706985721	-1.2678144812	 0.099876
H	-0.9522392587	-3.6564321149	-1.2537019644	 0.112098
H	-0.2460690119	-2.077057534	-1.8516301629	 0.115645
H	-1.429488735	-2.5910076041	 1.0218406677	 0.093685
