15
gdb 43721	5.30282	1.07553	1.0305	3.3949	65.67	-0.249	0.0036	0.2526	1132.0743	0.112199	-457.728277	-457.721182	-457.720238	-457.760088	27.09	
O	 0.1326430737	 0.2321225151	-0.6731494719	-0.304683
C	-0.0430067194	 1.2445241217	-0.081399371	 0.431305
C	-1.2127265808	 2.1267387556	 0.3696006139	-0.501542
C	-0.098381403	 2.9801190847	 0.9502633244	 0.4508
O	 0.919762724	 2.072517766	 0.4670714688	-0.274211
C	 0.2291076604	 4.4434968386	 0.9561876012	-0.229019
C	-0.9822578007	 5.2057026131	 1.4788044233	-0.087003
O	-1.0858559858	 4.3339318105	 2.6431975237	-0.28091
C	 0.10430841	 3.6482365541	 2.2597374329	-0.00094
H	-1.7855402877	 2.5599216637	-0.4525941614	 0.14858
H	-1.8861273794	 1.6577914649	 1.0885320729	 0.159267
H	 1.0934683601	 4.8482616085	 0.4479027227	 0.124015
H	-0.7533693704	 6.2301824477	 1.7905195432	 0.123693
H	-1.8936172697	 5.1969942907	 0.870159161	 0.11425
H	 0.8144772187	 3.3467635552	 3.0210078263	 0.126398
