20
gdb 87865	3.06064	1.37089	1.23439	2.4212	78.18	-0.2237	0.0741	0.2979	1092.8485	0.172304	-403.110131	-403.102192	-403.101248	-403.142302	31.941	
O	-0.6766462691	 1.3302191964	-0.574996561	-0.420653
C	-0.3640261859	-0.0139187815	-0.3539479043	 0.06354
C	-0.1885564449	-0.5288311622	 1.052903866	-0.410251
C	-1.4298661971	-0.8772305742	 0.2646267529	 0.31073
C	-2.7998470785	-0.2968301835	 0.6078181927	-0.301477
C	-3.7408843004	-1.086518938	-0.2904117759	-0.009538
C	-3.3687474899	-1.218391554	-1.7216409007	-0.251454
N	-3.0782108722	-2.3152911861	-0.7833423649	-0.101248
C	-1.7007046434	-2.2899125628	-0.2583834308	-0.231191
H	 0.095900951	 1.8597360831	-0.352385549	 0.290017
H	 0.2480281332	-0.4703819544	-1.1338507918	 0.083643
H	 0.5510391694	-1.302348145	 1.2380633861	 0.11067
H	-0.3034734241	 0.1921238909	 1.8567296868	 0.113276
H	-3.0503539071	-0.4803020978	 1.6596041143	 0.100682
H	-2.8393364936	 0.7810738354	 0.4334624321	 0.12658
H	-4.7795923849	-1.1881701895	 0.0107262183	 0.085563
H	-4.1293114934	-1.4529449214	-2.4606627855	 0.110802
H	-2.5479625425	-0.609330619	-2.0928601693	 0.124637
H	-0.9887208634	-2.6049371249	-1.0296799877	 0.101282
H	-1.6485817031	-3.0197500215	 0.5591267816	 0.104389
