21
gdb 36989	6.08207	0.65881	0.62208	2.4381	80.57	-0.2495	0.0816	0.3311	1820.0152	0.181649	-424.17949	-424.170307	-424.169362	-424.214982	33.27	
C	 0.1241818495	 1.3353573363	-0.2679868323	-0.088028
O	 0.1593152151	 0.0346890098	 0.2795068586	-0.257576
C	-1.01250952	-0.7036890254	 0.0546842358	 0.183895
C	-1.2729474374	-1.3112617515	-1.3553660882	-0.246474
C	-1.7386303892	-2.6095898059	-0.6387407054	-0.219043
C	-0.9916404753	-2.129243638	 0.6366280424	-0.249279
C	 1.4226731218	 2.0230286839	 0.0504523016	 0.084277
C	 1.5148442432	 3.4855144149	 0.1162348099	-0.182135
O	 1.5116859966	 2.6979087253	 1.3058515184	-0.226471
H	-0.0103756226	 1.2943429508	-1.3624474975	 0.091973
H	-0.7107796719	 1.9191958424	 0.1524189429	 0.094541
H	-1.8916026979	-0.1380933435	 0.4028581707	 0.063978
H	-1.9758204476	-0.8069361248	-2.0225138617	 0.09374
H	-0.322785016	-1.4613521843	-1.8770763891	 0.106183
H	-2.8223398849	-2.629442603	-0.4954434845	 0.104841
H	-1.4299374653	-3.5617896273	-1.0736404964	 0.102843
H	 0.0373760207	-2.4982682983	 0.6629404548	 0.11405
H	-1.455659456	-2.2920078094	 1.611396054	 0.099974
H	 2.3142150903	 1.4549219539	-0.2165905822	 0.100184
H	 2.4560887463	 3.9774313399	-0.1245502355	 0.116192
H	 0.6232634906	 4.0908558845	-0.0459824164	 0.112334
