22
gdb 104113	2.42574	1.28122	1.13001	3.2762	83.28	-0.2507	0.0337	0.2844	1242.885	0.194096	-404.392174	-404.382713	-404.381768	-404.426296	36.138	
C	 0.3146338798	 1.4729306552	-0.0668316674	-0.392993
C	 0.3305947006	-0.0488733592	 0.1033940828	-0.200527
C	 0.5588873123	-0.5413879573	 1.5457133142	 0.375363
C	-0.5448348938	-0.102522254	 2.5024971449	-0.437094
C	 0.8173355585	-2.0666412068	 1.5841649725	-0.266895
C	 2.3381841047	-2.1730320517	 1.4193930975	-0.306355
C	 2.8372805334	-0.8572475013	 1.9757923976	 0.407062
N	 4.0233559327	-0.6097981413	 2.3332752054	-0.545078
O	 1.804864338	 0.0328878011	 2.0392340277	-0.270359
H	 1.2261304477	 1.9167023186	 0.3418365848	 0.135403
H	 0.2514389272	 1.7382203193	-1.1262177222	 0.113868
H	-0.5407886722	 1.9321778991	 0.4373227282	 0.11768
H	-0.613767659	-0.4788533901	-0.2534191647	 0.098516
H	 1.1194425062	-0.4720410322	-0.5306942402	 0.099211
H	-1.5052532557	-0.5278159111	 2.1932990728	 0.118183
H	-0.3246719409	-0.4475754155	 3.5163947052	 0.123414
H	-0.6435653793	 0.9851135612	 2.5292296988	 0.130497
H	 0.5104011867	-2.4683525778	 2.5547653337	 0.108145
H	 0.2553168132	-2.5953015547	 0.8109290695	 0.10738
H	 2.792550125	-3.014416549	 1.9432254224	 0.135323
H	 2.6311591181	-2.2497146719	 0.366713842	 0.132092
H	 4.1020279768	 0.3553755592	 2.6591619545	 0.217165
