20
gdb 58859	2.50895	1.53476	1.12252	3.1674	80.63	-0.2056	-0.0084	0.1972	1150.9319	0.169469	-403.120589	-403.111496	-403.110552	-403.154463	34.307	
C	-0.0647065299	 1.503369005	 0.222772577	-0.345859
N	-0.0111260013	 0.0549020671	 0.0384066891	-0.152937
C	 0.9200952549	-0.591240539	 0.9448050523	-0.334872
C	-1.3087238798	-0.5227843837	-0.0203042078	 0.296382
C	-2.1455981704	-1.0185128174	 1.1817826553	-0.335564
C	-1.8241520432	-1.974663498	 0.0788868205	-0.136063
C	-2.8233305393	-1.7473152149	-1.0667086552	-0.34733
C	-2.2594900105	-0.3074797703	-1.1674877123	 0.370555
O	-2.3949306291	 0.5749723329	-1.9684463934	-0.324344
H	 0.9353423067	 1.9216232357	 0.0718011642	 0.115963
H	-0.7381798993	 1.9364855062	-0.5191371078	 0.155898
H	-0.4107976417	 1.7944426424	 1.2315828243	 0.092756
H	 0.6790618963	-0.4406578159	 2.0140513674	 0.096253
H	 0.9543826327	-1.6663068682	 0.7464234015	 0.122343
H	 1.9220241021	-0.1850891229	 0.7740033311	 0.126055
H	-1.5633304961	-1.1184927739	 2.0918653529	 0.124663
H	-3.1690850306	-0.6891016813	 1.341546919	 0.116782
H	-1.2418085062	-2.874924185	 0.2242000493	 0.106786
H	-2.5913458489	-2.294602942	-1.9852419616	 0.133545
H	-3.8842994564	-1.8722049269	-0.8291906756	 0.11899
