14
gdb 4509	3.55821	1.85214	1.23563	1.932	61.32	-0.2045	0.0118	0.2162	934.2451	0.107167	-415.895417	-415.887535	-415.886591	-415.927584	28.473	
C	-0.0660813901	 1.4030649965	 0.0740437989	-0.486562
C	-0.0039999978	-0.0775583513	-0.0424873586	 0.389671
N	 0.0531044924	-0.7858293804	-1.133891253	-0.38479
C	 0.093604162	-2.092945156	-0.6936921056	 0.304207
O	 0.1575313086	-3.1201006509	-1.5614860496	-0.425965
C	 0.0598800205	-2.1469841145	 0.6625196316	 0.166339
N	 0.0768646037	-3.1831633429	 1.5796364063	-0.597774
O	-0.0047581667	-0.8065349388	 1.0851303397	-0.202024
H	 0.7875317857	 1.790166718	 0.6403759369	 0.144538
H	-0.0575437901	 1.8394075421	-0.9251282273	 0.153534
H	-0.9759688306	 1.7198105705	 0.594619171	 0.144534
H	 0.1652342238	-2.7290767922	-2.443325609	 0.302858
H	-0.7623666933	-3.2409135872	 2.1462257886	 0.245717
H	 0.8867542817	-3.175039353	 2.1901100701	 0.245716
