17
gdb 63769	2.94991	1.43645	1.17842	2.5554	72.31	-0.2529	0.0042	0.257	1058.8209	0.13496	-417.967231	-417.958794	-417.957849	-417.999815	32.275	
C	-0.2053128365	 1.5852788501	-0.0470435873	-0.483816
C	 0.0086663808	 0.0808310124	-0.0059042321	 0.391054
O	-1.2287574181	-0.6071750205	-0.1169663903	-0.468743
C	 1.1104651885	-0.5868824505	-0.8909821408	-0.23398
N	 1.6732319702	-1.3464379676	 0.2916949142	-0.136172
C	 2.1882654383	-0.3331573667	 1.2455361967	-0.17161
C	 2.8517311517	 0.872809518	 0.8184641676	 0.314961
N	 3.4159941123	 1.8245301406	 0.479835315	-0.349815
C	 0.7231733077	-0.5763502427	 1.1785330148	-0.065947
H	 0.7241077933	 2.1432815452	 0.07799264	 0.157201
H	-0.6334637485	 1.8726051945	-1.0159247097	 0.113523
H	-0.9091169155	 1.8833941959	 0.7357310725	 0.131604
H	-1.6927297042	-0.259817313	-0.8866035845	 0.282719
H	 0.6868430096	-1.2962190911	-1.6020891585	 0.123545
H	 1.838340625	 0.0614733332	-1.3861380593	 0.128714
H	 2.6901314824	-0.8073708564	 2.0852054743	 0.147898
H	 0.200143673	-1.0425955813	 2.0075816175	 0.118864
