20
gdb 58366	2.34405	1.11083	0.80134	4.0208	85.27	-0.2723	0.0329	0.3052	1453.7833	0.168067	-366.002949	-365.992387	-365.991443	-366.03889	38.056	
C	 0.0574573394	 1.5554774679	 0.0344687216	-0.409427
C	 0.0227278524	 0.020733969	 0.0182927977	 0.031759
C	 0.7929012181	-0.5411134442	 1.2217510768	-0.411986
C	-1.4367396649	-0.5218843647	-0.0093685289	-0.137679
C	-2.2637328892	-0.0162265326	-1.2265007379	-0.383142
C	-3.6473625284	-0.4697304514	-1.2064297004	 0.295817
C	-4.7888297768	-0.8412982104	-1.1644558467	-0.415923
C	-1.4375596878	-1.9894291306	 0.006346146	 0.294061
N	-1.4105125478	-3.1448520438	 0.0044706973	-0.334267
H	 1.0900628034	 1.9025582597	 0.135246761	 0.123696
H	-0.345292151	 2.0007679538	-0.8789091006	 0.123206
H	-0.5083539498	 1.953471553	 0.8853675827	 0.120653
H	 0.5150388255	-0.3299915492	-0.8985457482	 0.094058
H	 0.3420011173	-0.2078782565	 2.1640414994	 0.117579
H	 0.8064686458	-1.6337285893	 1.2213545864	 0.147958
H	 1.8283944501	-0.1884699108	 1.2071798925	 0.118966
H	-1.9464501946	-0.1879196704	 0.9037952506	 0.132417
H	-2.2431824993	 1.0774852134	-1.228000285	 0.142794
H	-1.7727891889	-0.3436786639	-2.1510424009	 0.146507
H	-5.7953711534	-1.178849989	-1.1385969534	 0.202954
