15
gdb 20632	3.83975	1.86477	1.265	2.2297	73.52	-0.2085	-0.0474	0.1611	926.9466	0.121006	-358.863306	-358.856231	-358.855286	-358.894547	26.701	
C	 0.0066507022	 1.5192869484	-0.0139391428	-0.49561
C	-0.0407635166	 0.0172437968	 0.0107561849	 0.299158
C	-1.1854142547	-0.6926303301	-0.120404354	-0.205347
C	-1.1898947079	-2.1448914604	-0.0919249374	 0.392851
N	-2.2683334318	-2.8313451325	-0.2152694709	-0.561426
N	 0.0956896026	-2.6798679597	 0.0822010789	-0.302245
N	 1.2543404476	-2.0144086588	 0.216145386	-0.185112
C	 1.1897056377	-0.7200042689	 0.1819514994	-0.054685
H	 0.6482329003	 1.8774275323	-0.8274218288	 0.1404
H	-0.9888315426	 1.9474954359	-0.1491496459	 0.135607
H	 0.4266371222	 1.9133733115	 0.918754937	 0.140378
H	-2.1513912632	-0.2190858424	-0.2525978114	 0.120477
H	-2.0850524518	-3.835393232	-0.171815982	 0.194785
H	 0.1979911448	-3.6835289605	 0.1154062147	 0.262294
H	 2.1360931912	-0.2006083097	 0.2918122622	 0.118475
