15
gdb 2434	5.49442	2.85847	2.48846	1.6431	60.11	-0.2252	0.0905	0.3157	604.1409	0.125438	-308.45482	-308.44905	-308.448106	-308.483947	22.953	
C	 0.0041943981	 1.4237924289	-0.0409481979	-0.505891
C	-0.0137959008	-0.0648014569	 0.0158740651	 0.485236
O	 0.9108429834	-0.8051872974	-0.7914617497	-0.327246
C	 0.1193575147	-1.9843675203	-0.4756175384	 0.07185
C	 0.4279315446	-2.2377248797	 1.0231176925	-0.23149
C	-0.3241324518	-0.9281559714	 1.2574071746	-0.154255
C	-1.1005345011	-1.0849378977	-0.0534679673	-0.195543
H	 0.9617757988	 1.8138605507	 0.3203603239	 0.133151
H	-0.1462816483	 1.7781612323	-1.0654870521	 0.13115
H	-0.7901964827	 1.836477924	 0.5881283136	 0.125263
H	 0.1646956058	-2.7577769404	-1.2392987211	 0.084527
H	-0.1283303412	-3.0943740158	 1.412972983	 0.101582
H	 1.4859001711	-2.3058577824	 1.2957244982	 0.099112
H	-0.6693723426	-0.4991431364	 2.1898489684	 0.087417
H	-2.1526101581	-1.0545114977	-0.301195623	 0.095136
