16
gdb 26544	2.29257	1.85609	1.03235	5.401	74.94	-0.2097	-0.0068	0.2029	1091.7435	0.12515	-437.956714	-437.948396	-437.947452	-437.989554	31.287	
C	-0.1799199692	 1.4406479893	-0.0367493662	-0.54235
C	-0.090566577	-0.0616239977	 0.0037806288	-0.014734
C	-1.1892817592	-0.8473543282	-0.1594102399	 0.410127
O	-2.453566667	-0.4102714299	-0.3706115145	-0.419685
N	-1.1278993522	-2.2121017823	-0.1257890179	-0.377604
C	 0.0686600574	-2.852394674	 0.078051401	 0.01631
C	 1.2077366737	-2.150532399	 0.2491837553	-0.240976
C	 1.2206419904	-0.6846467848	 0.2256970156	 0.335721
O	 2.2494586746	-0.0273603064	 0.3798613943	-0.410406
H	-0.5443260301	 1.8192373829	-1.001301969	 0.11837
H	-0.8251185842	 1.8498233863	 0.7524088101	 0.11845
H	 0.8277441381	 1.8326813906	 0.1177280884	 0.17284
H	-2.4427520899	 0.553183617	-0.3858953079	 0.315884
H	-1.9841248248	-2.7258903891	-0.2545270776	 0.271395
H	 0.0181695745	-3.9340470747	 0.0887915945	 0.134987
H	 2.149159165	-2.6599897099	 0.409622375	 0.111671
