11
gdb 133411	3.13397	1.41521	0.97495	1.3921	58.9	-0.255	-0.0868	0.1681	1048.1327	0.063785	-537.899869	-537.892895	-537.891951	-537.931717	25.781	
F	 0.0636375502	 0.0607127593	-0.1021377199	-0.03099
C	-0.0299803006	 1.375703032	-0.0450782624	 0.205915
C	-1.1844287853	 2.0474999105	-0.0827436471	-0.29615
C	-1.1589810705	 3.4972638799	-0.0122368891	 0.430456
N	-2.2054829304	 4.2080963361	-0.0416712511	-0.519052
O	 0.0988876655	 4.1032891364	 0.0923810233	-0.293116
N	 1.2900798146	 3.3951301772	 0.1305865055	-0.119042
C	 1.2048436034	 2.1249320372	 0.0651575972	 0.246885
F	 2.3287844866	 1.4367655394	 0.0995845086	-0.030875
H	-2.1467165017	 1.561110986	-0.1639837034	 0.167267
H	-1.9802834918	 5.2016574759	 0.0191186983	 0.2387
