23
gdb 63642	3.51133	0.89816	0.8562	1.7633	86.97	-0.2525	0.0846	0.3372	1508.5908	0.204211	-388.274278	-388.264424	-388.263479	-388.309397	36.889	
C	 0.0096986373	 1.5299446393	-0.274043671	-0.457703
C	-0.0757858701	 0.046795257	 0.0173247433	 0.393088
C	-1.2157164295	-0.6684681557	-0.6793154664	-0.449852
O	 1.174233694	-0.6646308125	-0.015733423	-0.304987
C	 0.4925349473	-0.551651017	 1.2434244082	-0.008398
C	 1.1800439597	 0.1861764056	 2.3552811177	 0.022758
C	 0.3560107156	 0.50728441	 3.6378394103	-0.234239
C	 1.6066668174	 0.1537309555	 4.486562696	-0.20992
C	 2.1770397519	-0.6028671076	 3.2571060227	-0.227344
H	 0.8768981578	 1.9902099949	 0.2010237382	 0.128486
H	 0.0924489659	 1.6936732806	-1.3542712852	 0.123286
H	-0.8934947689	 2.0448862895	 0.0712486856	 0.11872
H	-1.133521168	-0.5511476377	-1.7656640883	 0.12224
H	-1.2022208246	-1.7367893582	-0.4502349738	 0.124945
H	-2.1829362514	-0.2565103234	-0.3710361679	 0.117062
H	 0.0358464207	-1.4914864577	 1.5708299567	 0.071728
H	 1.6620268987	 1.0885969239	 1.9724116751	 0.071986
H	-0.0674204985	 1.5103473766	 3.730319621	 0.097003
H	-0.447991908	-0.2221632998	 3.7838276001	 0.099058
H	 2.1973414513	 1.0429392783	 4.7250515655	 0.102834
H	 1.4515105474	-0.4143467483	 5.406597378	 0.096692
H	 1.9241501704	-1.6679247271	 3.2855115953	 0.100226
H	 3.2423242636	-0.5056608264	 3.0372932615	 0.102334
