19
gdb 124688	3.83379	0.89143	0.86372	1.9317	77.17	-0.2352	0.0238	0.2589	1398.8054	0.160417	-419.224447	-419.215277	-419.214333	-419.259212	33.312	
C	-0.0133946148	 1.5958222546	-0.0581667143	-0.389291
C	 0.0332635459	 0.0591972522	-0.0211426916	-0.107155
C	 0.6858401484	-0.5064200351	-1.2905865586	-0.06889
O	-0.0822438618	-0.0901806146	-2.4099807207	-0.421496
C	 0.7324106679	-0.4660783375	 1.2031458735	 0.22258
C	 0.2443402654	-1.357700606	 2.1387750821	-0.151583
N	 1.2278548396	-1.546505889	 3.0523743696	-0.178419
N	 2.3398171903	-0.838042156	 2.785342158	-0.225089
C	 2.0428483877	-0.1834028029	 1.6663194994	-0.086659
H	 0.997751713	 2.018448217	-0.0538573875	 0.110503
H	-0.5186081685	 1.9372109144	-0.9642195223	 0.131645
H	-0.542337625	 1.9901949696	 0.8140647396	 0.11272
H	-0.9988826066	-0.3135639596	-0.0129092238	 0.080076
H	 1.7244933637	-0.1435142957	-1.3600132738	 0.085333
H	 0.7255545373	-1.6040526497	-1.2188339748	 0.087072
H	 0.3529981216	-0.4029770418	-3.2079506057	 0.287099
H	-0.710142595	-1.8546847941	 2.2179915551	 0.132109
H	 1.2058242791	-2.1283085786	 3.8722493756	 0.273341
H	 2.7789012517	 0.4754921927	 1.2284356501	 0.106105
