17
gdb 97353	3.39312	0.78219	0.64069	2.3235	88.36	-0.2426	-0.0601	0.1826	1714.6943	0.134244	-414.202621	-414.192432	-414.191488	-414.238468	34.63	
C	 0.3727270926	 1.8030868689	 0.9255561155	-0.312883
N	 0.3278595801	 0.3893671306	 1.2358936772	-0.237565
C	 0.0972873451	-0.4108581542	 0.2833112749	 0.119778
N	 0.0424884421	-1.7763369687	 0.5216653079	-0.371447
C	-0.2011472135	-2.736253305	-0.4427502349	 0.339404
N	-0.4026968705	-2.4508817635	-1.6643219122	-0.283894
C	-0.6545811128	-3.4829949347	-2.6444556211	-0.34357
C	-0.1989546493	-4.0897093541	 0.1013952552	 0.220788
N	-0.201361227	-5.1702322038	 0.5127174457	-0.323372
H	 1.3499151979	 2.2096270904	 1.2107379914	 0.131542
H	 0.1962307476	 2.0324452821	-0.1369119568	 0.104049
H	-0.3769030094	 2.3332882621	 1.5242651388	 0.131545
H	-0.0738163932	-0.1444128396	-0.7627325133	 0.135041
H	 0.1947939669	-2.069038386	 1.4754471219	 0.276505
H	-1.6241659747	-3.2948487909	-3.1194059324	 0.140142
H	 0.1020021681	-3.4168074706	-3.434539133	 0.140132
H	-0.6536191599	-4.505367413	-2.2432853849	 0.133805
