21
gdb 111010	2.54675	1.49387	1.17294	2.1028	78.23	-0.2492	0.0867	0.3359	1144.2927	0.183365	-424.207845	-424.199343	-424.198399	-424.240687	33.521	
C	 0.1049530993	 1.2704422087	 0.1513795322	-0.241305
O	-0.2825008307	-0.0142317568	-0.2851602807	-0.274959
C	 0.5432340002	-0.5526088795	-1.2890963468	 0.101319
C	 1.8534498821	-1.2642893173	-0.8270494699	-0.075432
C	 0.9457760995	-2.4211225795	-0.3219644487	-0.297383
C	 0.0983392711	-2.0153949967	-1.5782415627	 0.411488
O	-1.2398737902	-2.3352356421	-1.743604588	-0.495452
C	 1.0205862137	-2.4039980519	-2.737545935	-0.253619
C	 2.361423986	-1.8190091191	-2.1760596827	-0.221171
H	 1.0959776101	 1.262484674	 0.6269835465	 0.111567
H	 0.1272039394	 1.9883615667	-0.6826348242	 0.108908
H	-0.6353504449	 1.6021624013	 0.8834964614	 0.12738
H	 0.6199638741	 0.145206946	-2.1376295884	 0.0535
H	 2.5771451304	-0.7739160195	-0.1772697035	 0.062546
H	 1.3667584066	-3.4296730175	-0.2928267266	 0.086053
H	 0.4379652917	-2.1821013196	 0.6117373146	 0.104901
H	-1.7266769657	-1.8419564468	-1.0718458506	 0.287243
H	 1.0507401652	-3.4865841486	-2.8846558037	 0.104434
H	 0.7081592763	-1.940906863	-3.6775003538	 0.101236
H	 2.7789581553	-1.0380644022	-2.8187053376	 0.096796
H	 3.1285604808	-2.5855145867	-2.038269182	 0.101951
