15
gdb 17836	4.24078	1.72181	1.49365	3.1151	61.05	-0.2361	0.0273	0.2635	847.4247	0.119937	-399.78306	-399.77613	-399.775185	-399.814429	26.436	
N	 0.5481421379	 0.367784953	 0.8330451774	-0.543202
C	-0.021891772	 0.0294867424	-0.3577526039	 0.391517
O	 0.3159586081	 0.5167586253	-1.4205841682	-0.374741
C	-1.1192278734	-1.0098030697	-0.3074706689	-0.122971
C	-0.9864789975	-2.4714951129	 0.1233363919	-0.142603
C	-0.1914990073	-2.5874797425	 1.4168709424	-0.099404
O	-1.0315286541	-1.5801013172	 2.0631192447	-0.29453
C	-1.8641404947	-1.5191457109	 0.893177724	 0.055528
H	 1.2157479927	 1.1215656019	 0.825202515	 0.254726
H	 0.1438720916	 0.0450518326	 1.7004189937	 0.271069
H	-1.7465525116	-0.9291949392	-1.1903604541	 0.12209
H	-1.2351136302	-3.2851265258	-0.5432636085	 0.114507
H	-0.3202347806	-3.5517578877	 1.9179050757	 0.123787
H	 0.8641124925	-2.3002608672	 1.4057965769	 0.125593
H	-2.9340731916	-1.441906952	 1.0469608119	 0.118633
