16
gdb 43711	4.74869	1.2163	1.09471	3.3606	69.36	-0.2512	0.0042	0.2554	1081.2402	0.125605	-437.83814	-437.831315	-437.830371	-437.869495	27.065	
O	 0.1721647046	 0.1269336322	-0.6906082913	-0.31163
C	-0.0195963754	 1.1563678425	-0.1315826387	 0.428406
C	-1.2000630388	 2.0442454782	 0.2571307447	-0.531006
C	-0.1087261062	 2.938595348	 0.8611123273	 0.520371
O	 0.9192652727	 1.9942428922	 0.4274675406	-0.289773
C	 0.1590403923	 4.444596761	 0.6705440994	-0.118408
C	-0.8999286011	 4.6978701083	 1.7743629639	-0.204004
C	 0.0090009552	 3.5451066502	 2.2733242338	-0.118413
N	 1.1873582675	 4.3862521153	 1.7948790207	-0.329761
H	-1.7514616317	 2.4550959428	-0.5905141329	 0.150498
H	-1.8960125634	 1.583990211	 0.9608188059	 0.150575
H	 0.3343460191	 4.9972377093	-0.2523722023	 0.09595
H	-0.7684074617	 5.6353211405	 2.3127792071	 0.122715
H	-1.9425965718	 4.4693717402	 1.5485224739	 0.105134
H	 0.0075801781	 3.0382888697	 3.2382349849	 0.09595
H	 1.9506579107	 3.7628136585	 1.516456763	 0.233396
