20
gdb 66244	2.45444	1.53571	1.29447	2.036	73.66	-0.2399	0.0837	0.3237	1080.4827	0.171626	-440.257656	-440.249033	-440.248089	-440.291187	32.43	
C	-0.0841049167	 1.5111706239	 0.1523795718	-0.435291
C	 0.0067761946	-0.0053461858	-0.0118189567	 0.327694
C	 0.8907571704	-0.4342723844	-1.2145381856	-0.145313
O	 1.6589620061	-1.5157302222	-0.7079991597	-0.232225
C	 1.8984373276	-1.1638295028	 0.6266433902	 0.011974
O	 0.7080344875	-0.5737712117	 1.1124757897	-0.3016
C	-1.3846292012	-0.6269739125	-0.0817854253	-0.005264
C	-1.5971792676	-2.0674415549	 0.1826964371	-0.250342
N	-2.0677905146	-1.0510059969	 1.1452939514	-0.333274
H	 0.9121874121	 1.9472675909	 0.2682978722	 0.117716
H	-0.560179549	 1.9658564009	-0.723179637	 0.119728
H	-0.6804532324	 1.7649141241	 1.0328051777	 0.137247
H	 0.3129494803	-0.7916099862	-2.0688997763	 0.12472
H	 1.5436855011	 0.3915329615	-1.5373264858	 0.092763
H	 2.1253989361	-2.0649337061	 1.203360957	 0.12195
H	 2.7334364462	-0.443263949	 0.7010253504	 0.088196
H	-2.0375525069	-0.1297016439	-0.7980058	 0.085324
H	-2.3835258798	-2.603875351	-0.3405146062	 0.113921
H	-0.7300105356	-2.6635961776	 0.4475667551	 0.121157
H	-1.3911875482	-1.0093270662	 1.9061222601	 0.240921
