21
gdb 110335	2.84058	1.14787	0.99363	3.1797	83.57	-0.2338	-0.0078	0.2259	1318.6568	0.181469	-387.091157	-387.081785	-387.08084	-387.125588	34.951	
C	 0.2461376658	 1.3901682003	-0.2106773344	-0.375266
C	-0.203219789	-0.0349190072	 0.1317961773	-0.21451
C	 0.6069148229	-0.6321967901	 1.2691297531	-0.005377
C	 0.7806201779	-2.0765819648	 1.5794130941	-0.08819
C	 2.0078534057	-1.2263364782	 1.1182666081	-0.199801
C	 2.0924323983	-2.0997830898	-0.0949503266	 0.413692
O	 2.9292766269	-2.2595603022	-0.9406438287	-0.331786
C	 0.8486110942	-2.9435609068	 0.3070766916	-0.125257
C	 1.2189950656	-4.4100172942	 0.5265912108	-0.407905
H	 1.2926223267	 1.404575821	-0.5315911723	 0.129353
H	-0.3602633677	 1.8110852268	-1.0180642147	 0.115408
H	 0.1542281827	 2.0536546372	 0.6563946366	 0.113395
H	-1.2618432194	-0.0282421156	 0.4226070657	 0.100829
H	-0.1348570601	-0.6606540345	-0.7631277257	 0.111226
H	 0.5646006267	-0.0199576555	 2.1702448204	 0.095167
H	 0.6305555508	-2.4814331272	 2.5729970028	 0.098947
H	 2.8488174557	-0.8337461401	 1.6773502001	 0.10488
H	-0.0183177825	-2.8705731593	-0.3572805762	 0.090029
H	 2.0700462892	-4.5054576562	 1.2092707496	 0.121357
H	 0.3781450506	-4.9672401902	 0.9516377751	 0.117061
H	 1.4974377093	-4.8753358736	-0.4228104268	 0.136748
