20
gdb 109279	2.76823	1.13583	0.85848	3.6978	82.7	-0.2367	0.0174	0.2541	1379.3628	0.172019	-403.206958	-403.197791	-403.196847	-403.241898	33.535	
C	 0.0409686481	 1.5065597193	-0.2397169201	-0.375877
C	-0.0408438157	-0.0051562875	 0.0371381971	-0.268759
C	 0.6662334598	-0.4358150472	 1.3001585169	 0.311178
C	 0.0052219481	-0.912763216	 2.3534451357	-0.158253
C	 0.6481744361	-1.3563710559	 3.6299835292	-0.201919
N	 2.0929417265	-1.2369812604	 3.5988920924	-0.318238
C	 2.8782196571	-0.7782376329	 2.5835075155	 0.398332
O	 4.0916026002	-0.7373625904	 2.6789623388	-0.381586
C	 2.1677141204	-0.3118255142	 1.3199834146	-0.421063
H	 1.0744629053	 1.8418860304	-0.3686033854	 0.123938
H	-0.5030709034	 1.759230137	-1.1547819122	 0.117353
H	-0.3969892716	 2.0781570522	 0.5846241167	 0.120874
H	-1.0928636046	-0.3049443858	 0.094942975	 0.10154
H	 0.3917729554	-0.5438292522	-0.8177796287	 0.104002
H	-1.0772902767	-1.0050986256	 2.3259280355	 0.087328
H	 0.2423768469	-0.7682261021	 4.4690208097	 0.118015
H	 0.3660575195	-2.4010516281	 3.8374581239	 0.118116
H	 2.6131977135	-1.530333494	 4.4130398677	 0.245494
H	 2.6113771887	-0.8699990086	 0.4844748186	 0.13767
H	 2.4819567065	 0.7267166819	 1.1562129091	 0.141854
