19
gdb 82696	2.71443	1.54823	1.19943	3.0408	80.48	-0.2424	-0.0215	0.2208	1083.2099	0.159048	-385.855951	-385.84791	-385.846966	-385.888452	31.067	
C	-0.0655844956	 1.6112857964	-0.2639676844	-0.42603
C	 0.0756272231	 0.1137395797	-0.0183345609	-0.047895
C	 1.1148557568	-0.7403791402	-0.8088696288	-0.091665
C	 2.5020890668	-0.1128773713	-0.4780188611	-0.24477
C	 2.2705339885	-0.6138415123	 0.9452514563	-0.094991
C	 1.2987110979	-1.6407638895	 0.4749739774	-0.097459
C	 0.7587393104	-0.4232680183	 1.2445986732	 0.244425
C	 0.2627676909	-0.4757514636	 2.6239822417	 0.032595
O	 0.8620307054	-0.9661224829	 3.5559064877	-0.277191
H	 0.8780640925	 2.1449011632	-0.1234339928	 0.122075
H	-0.4189097673	 1.8085824792	-1.2823309461	 0.11717
H	-0.7946549165	 2.0484423302	 0.4270550925	 0.119329
H	-0.9040124186	-0.3703830584	-0.1127371249	 0.076449
H	 0.888618003	-1.0936243896	-1.8127696971	 0.074588
H	 3.3081789302	-0.6763007433	-0.9553309089	 0.108761
H	 2.6468631224	 0.956237565	-0.6592413846	 0.096873
H	 2.9542888881	-0.6827203215	 1.7803198197	 0.113039
H	 1.1609139574	-2.6872805396	 0.7037141397	 0.11
H	-0.7506838754	-0.0341862631	 2.7674712414	 0.064698
