16
gdb 34302	3.41544	1.51094	1.34832	5.9078	68.17	-0.274	0.0162	0.2902	966.1192	0.126418	-437.896736	-437.889843	-437.888899	-437.927981	27.198	
N	 0.0415121817	-1.092052099	-0.0372310059	-0.330545
C	 0.0172627738	 0.0610584647	-0.0217477034	 0.256055
C	-0.0415569241	 1.5210595441	 0.0515438163	 0.412441
C	-0.6944033337	 2.1726543263	 1.2829233138	-0.278466
C	-0.4029265516	 3.5653845068	 0.6879356024	-0.126553
C	 1.1137485236	 3.4348121184	 0.4614111934	-0.07798
O	 1.2697206276	 2.057449708	 0.0385465923	-0.299792
C	-1.0793780364	 3.4040236744	-0.6850329584	-0.07798
O	-0.790830345	 2.0285229814	-1.038597016	-0.299794
H	-1.7541676312	 1.9325816695	 1.3761306331	 0.129732
H	-0.1610144421	 1.9549408383	 2.2089472248	 0.129731
H	-0.7153104054	 4.4364170669	 1.262128478	 0.096129
H	 1.4900734123	 4.0958788776	-0.3261294387	 0.118727
H	 1.6946925629	 3.5993600555	 1.3760786528	 0.114784
H	-2.1653768625	 3.5451691174	-0.6417473906	 0.114784
H	-0.6621009799	 4.0656665797	-1.4511649041	 0.118727
