18
gdb 121063	4.87155	0.84959	0.7742	4.4414	68.69	-0.2614	0.0519	0.3132	1458.291	0.148206	-476.258996	-476.249989	-476.249045	-476.294021	31.546	
C	-0.779017599	 0.8066092004	-0.3960054386	-0.23991
O	 0.2361617313	 0.4073466328	-1.2949574171	-0.231544
C	 1.3458632486	-0.2170745532	-0.6851143597	-0.106057
C	 1.1040302538	-1.7108951526	-0.4766029509	 0.111053
C	 0.8185931005	-2.4899354343	-1.7791979317	-0.19281
N	 1.5694173795	-3.7023894588	-1.5160815749	-0.365287
C	 2.5459807553	-3.5028761412	-0.5653835457	 0.471041
O	 3.4617765317	-4.2197695441	-0.2769879658	-0.386723
O	 2.2983031261	-2.3041053843	 0.0542919953	-0.252594
H	-1.2575680709	-0.0437379179	 0.111024699	 0.110436
H	-0.3882991762	 1.4910590387	 0.3714106178	 0.115267
H	-1.5368008848	 1.3298823331	-0.9837095363	 0.135069
H	 2.1976846704	-0.0912342418	-1.3623588081	 0.117978
H	 1.6018965439	 0.258065958	 0.272843878	 0.109143
H	 0.2974838693	-1.8755302807	 0.248139131	 0.097426
H	-0.2479538931	-2.6836106311	-1.9161218839	 0.125768
H	 1.1853185692	-1.9437251328	-2.6592512246	 0.118711
H	 1.7548064643	-4.3883476701	-2.2291768935	 0.263033
