17
gdb 110343	2.91834	1.24785	1.08785	2.938	69.58	-0.2397	-0.0165	0.2232	1159.9069	0.133897	-458.927775	-458.918887	-458.917943	-458.961925	32.026	
C	 0.1488638528	 0.9825293723	 0.3601269459	-0.243258
O	-0.1654127313	-0.0532625455	-0.5548125528	-0.236712
C	-1.3694886949	-0.6831505226	-0.2740400632	 0.120689
C	-1.5956568011	-2.0578434198	-0.7376645604	-0.148344
C	-1.5114643396	-1.736836916	 0.8191657359	-0.255653
C	-0.3251997912	-2.6329476952	 0.8533808517	 0.38887
O	 0.2066275351	-3.2647103928	 1.7277542762	-0.341321
C	-0.2802488877	-2.8524133481	-0.6842798499	 0.044344
O	-0.4501330205	-4.2171135306	-0.9887171478	-0.449366
H	 1.0994317817	 1.4125249517	 0.0394064985	 0.13709
H	-0.6206039083	 1.7684441781	 0.3547564574	 0.111808
H	 0.2508807341	 0.5975165133	 1.3838232067	 0.124112
H	-2.2365299745	-0.0194321646	-0.3119179455	 0.105594
H	-2.469737168	-2.3842881041	-1.2847658898	 0.125441
H	-2.2846801386	-1.6742200491	 1.5756888052	 0.113554
H	 0.5501129777	-2.4050368365	-1.2396256823	 0.104733
H	 0.0614117643	-4.7127156603	-0.3370372656	 0.298417
