15
gdb 42998	2.39821	1.69276	1.30502	2.3495	70.84	-0.2448	-0.0308	0.214	995.2208	0.111419	-420.585903	-420.578211	-420.577267	-420.618291	29.352	
O	-0.152811176	 0.1421208012	-0.7979394373	-0.311558
C	-0.1136788974	 1.2232062049	-0.2782014363	 0.402665
C	-1.2245690771	 2.0217095147	 0.2997793394	-0.199359
C	-0.9715992818	 2.5775429666	 1.7140250324	-0.326146
C	-0.6386975337	 3.3970224545	 0.5203075168	 0.115147
O	 0.7094967443	 3.4406968854	 0.1106461199	-0.2533
C	 1.1669332375	 2.1196985843	-0.1857399016	-0.204391
C	 2.1098569109	 1.6111555213	 0.8043355582	 0.36497
C	 2.8763381589	 1.1788126306	 1.6226878309	-0.46806
H	-2.2353012305	 1.8203364785	-0.0282342708	 0.122244
H	-1.8676851992	 2.827791124	 2.2704971577	 0.134024
H	-0.1634882275	 2.1557885704	 2.3003208159	 0.150621
H	-1.1682934239	 4.3110326146	 0.2816060672	 0.120202
H	 1.637864107	 2.1359278866	-1.1756030887	 0.144556
H	 3.5614952384	 0.7979506324	 2.3396499362	 0.208386
