19
gdb 41783	2.97009	1.57121	1.1509	0.7924	75.53	-0.2464	-0.0033	0.2431	1069.137	0.161507	-422.994761	-422.98726	-422.986316	-423.026754	29.396	
C	 0.1810235094	 1.5910521635	 0.2378659685	-0.095103
O	 1.4205720891	 1.5353202561	-0.4986837355	-0.294852
C	 1.1861700063	 0.1536877081	-0.8676742214	 0.094517
C	 2.368569592	-0.7240245369	-0.5810611252	-0.06897
C	 2.2571329236	-1.9773197818	-0.1444890422	-0.094742
C	 0.9093587183	-2.6271548501	 0.0972521886	-0.113932
O	 0.1925302024	-2.119564953	 1.2228854608	-0.260764
C	 0.1939245486	-0.7114496768	 1.3750491007	-0.066443
C	-0.0405681091	 0.0726037104	 0.0868453456	-0.098189
H	 0.3291412894	 1.9622579054	 1.2598790687	 0.105211
H	-0.5663836904	 2.2182446162	-0.2645305244	 0.100986
H	 0.9076681317	 0.0911782791	-1.9319908886	 0.085497
H	 3.3404258186	-0.2624457378	-0.7391545979	 0.107048
H	 3.1480424088	-2.5626001791	 0.0635292596	 0.098064
H	 0.2878430749	-2.5338677058	-0.8073087058	 0.097575
H	 1.0256460807	-3.695902947	 0.2940173809	 0.111432
H	-0.6067621945	-0.496477535	 2.0915589796	 0.107397
H	 1.1381917356	-0.3706848551	 1.8254263582	 0.100671
H	-0.9777693055	-0.2267498903	-0.3871216403	 0.084594
