17
gdb 3368	4.00294	2.60431	2.59233	1.5097	63.28	-0.2432	0.0839	0.327	657.5244	0.150344	-309.711438	-309.705034	-309.70409	-309.741359	24.648	
C	-0.1705091952	 1.5553408158	-0.0385243193	-0.424719
C	 0.028950587	 0.054949272	 0.0407186446	-0.003458
C	 1.3445669047	-0.6484403453	-0.2110132993	-0.078446
C	 2.6253323037	 0.1549420808	-0.0837381319	-0.090801
O	 2.5398394898	 0.8610220861	 1.1528613069	-0.253079
C	 1.687355972	 0.1425848417	 2.042891965	-0.0908
C	 0.7331960642	-0.6564963306	 1.1751152673	-0.078447
H	 0.6920591036	 2.1029917488	 0.3450429522	 0.145018
H	-0.3384264984	 1.8670406156	-1.0755430342	 0.112597
H	-1.050782681	 1.8576558289	 0.5398235152	 0.112598
H	-0.8224403808	-0.507053125	-0.3380700451	 0.082945
H	 1.3647285257	-1.5383667507	-0.8299807001	 0.08506
H	 3.4929036193	-0.5247111692	-0.0931895305	 0.091958
H	 2.7730821824	 0.904012237	-0.86996409	 0.106279
H	 2.2682942963	-0.5408442834	 2.6833084826	 0.091957
H	 1.2031837126	 0.883330295	 2.6893908832	 0.106279
H	 0.2935384342	-1.5524814973	 1.5986810134	 0.08506
