17
gdb 37201	2.73061	2.06385	1.74647	1.2715	69.7	-0.2396	0.0499	0.2894	851.4367	0.136517	-421.712986	-421.706369	-421.705425	-421.743579	27.35	
C	-0.056933829	 1.5556166979	-0.0368359138	-0.28605
C	 1.5201656076	 1.5600620834	 0.0060827828	-0.29278
C	 1.4865577245	 0.0061889003	-0.0186845187	 0.360636
O	 1.5806232985	-0.7124011712	 1.2208449956	-0.330166
C	 0.1243166009	-0.7579440306	 1.3107081491	-0.144718
C	-0.0416799187	-0.0054025187	-0.0262559062	 0.13702
C	 0.0068945644	-0.8534342871	-1.3060666663	-0.045147
O	 0.7661051224	-0.1068429698	-2.2651445992	-0.230851
C	 1.5011355862	-0.8534509113	-1.2943266335	-0.056717
H	-0.5554139674	 2.0160455178	 0.8197034519	 0.102535
H	-0.4658373052	 1.9769938028	-0.9558261308	 0.122109
H	 1.9949329341	 2.0221851713	-0.8607141665	 0.118596
H	 1.9618389834	 1.9591686581	 0.9209891016	 0.114701
H	-0.2473934149	-1.7888553589	 1.3414657103	 0.109004
H	-0.2419910137	-0.2193508606	 2.1927328294	 0.109833
H	-0.7017458461	-1.5707239018	-1.7079781198	 0.103432
H	 2.2262654631	-1.5732554916	-1.6585566459	 0.108563
