17
gdb 90475	4.10298	1.06952	1.06403	3.9531	69.56	-0.2386	-0.0209	0.2177	1184.3945	0.134426	-458.9498	-458.941536	-458.940591	-458.98322	30.32	
C	-0.2999045752	 1.4294691241	-0.051254162	-0.396931
C	 0.0854449143	-0.038100517	 0.0111942165	 0.208253
O	 0.9070498995	-0.4195505018	-1.0955774184	-0.262734
C	 2.235921217	-0.3805473545	-0.6495401386	 0.02488
C	 2.1900569925	-0.3297972382	 0.8260023402	 0.024877
O	 0.835995568	-0.3409351561	 1.1903685162	-0.262735
C	 2.7383880075	-1.5951464144	 0.1472111736	-0.18559
C	 1.9999494797	-2.8796210747	 0.1684347713	 0.173767
O	 2.5483081133	-3.9548565239	 0.2224027231	-0.27283
H	 0.5956429621	 2.0579022768	-0.0450246663	 0.126191
H	-0.8643625147	 1.6287570097	-0.9662042214	 0.132538
H	-0.9196157601	 1.6898773226	 0.8110726784	 0.132537
H	-0.7951537848	-0.689255795	 0.0062180732	 0.106651
H	 2.9222302313	 0.17016442	-1.2822581862	 0.12406
H	 2.8369656465	 0.2645139614	 1.4607773389	 0.124059
H	 3.8176210625	-1.7075727229	 0.1846161599	 0.113534
H	 0.8962703307	-2.799725436	 0.1314375917	 0.089471
