16
gdb 29322	3.24433	1.27474	0.92565	5.2348	80.78	-0.2392	-0.0358	0.2034	1217.3981	0.124032	-400.807795	-400.799089	-400.798145	-400.841258	31.191	
C	 0.0072378314	 1.5224481318	-0.0288391977	-0.503479
C	 0.0053562831	 0.0264103989	 0.0080186854	 0.194549
C	-0.0246748058	-0.8306602579	-1.0513523248	-0.117405
O	-0.0166966681	-2.1222118912	-0.6508482146	-0.179232
C	 0.0191533057	-2.0959970328	 0.7156408331	 0.203423
C	 0.034495344	-3.3262675768	 1.4044843535	 0.22474
N	 0.0484986012	-4.3172853371	 2.0060256987	-0.3513
C	 0.0348931545	-0.80584939	 1.1791024802	 0.055065
C	 0.0743051465	-0.3605137216	 2.6043961874	-0.517352
H	 0.899229219	 1.9342365113	 0.4565623205	 0.137563
H	-0.0130259428	 1.8912843159	-1.0575247595	 0.133211
H	-0.8628474119	 1.9374572057	 0.4923593081	 0.137668
H	-0.0525235596	-0.6733940302	-2.1178627919	 0.148786
H	 0.9639902421	 0.2474259673	 2.8040145451	 0.140599
H	-0.7975368094	 0.2563777209	 2.8498452249	 0.140506
H	 0.0877694301	-1.2151204539	 3.2846828315	 0.152659
