18
gdb 23422	3.14272	1.33192	1.06216	1.064	74.6	-0.2457	-0.0014	0.2443	1140.4335	0.148315	-439.035172	-439.027252	-439.026308	-439.068033	30.368	
O	-0.319816805	 1.3534776689	-0.1967954729	-0.396203
N	-0.0515483928	-0.0245656369	-0.0815885177	-0.215975
C	-1.1327357139	-0.6907979882	-0.0332160247	 0.370221
C	-2.5510230716	-0.1583576275	-0.0635615068	-0.171348
O	-3.3849339611	-1.2389433137	 0.3323231883	-0.265952
C	-2.7025967083	-2.4572987188	 0.1058465849	 0.134634
C	-2.6220383949	-2.9817396054	-1.360814845	-0.255285
C	-1.0700915982	-2.976611742	-1.2603431539	-0.228608
C	-1.1687576529	-2.1907567821	 0.0850241278	-0.156047
H	 0.563875696	 1.7361069287	-0.1854738462	 0.308066
H	-2.6898077854	 0.676923243	 0.6294179658	 0.137743
H	-2.8025334906	 0.2062190634	-1.0722317987	 0.119363
H	-3.0737707955	-3.1865020302	 0.8283877769	 0.085748
H	-3.0981883304	-3.9447798191	-1.5561069716	 0.104811
H	-3.0172002258	-2.252057403	-2.072112434	 0.112537
H	-0.6517065148	-3.9745476279	-1.1110305217	 0.108743
H	-0.5176422148	-2.4843062219	-2.0626207566	 0.112622
H	-0.5528926798	-2.5511467173	 0.9103193059	 0.09493
