16
gdb 30987	3.28154	1.17766	0.89037	3.567	68.84	-0.1757	0.0361	0.2118	1235.4297	0.125596	-471.250934	-471.241924	-471.24098	-471.284657	32.975	
N	-0.1209974911	 1.3275527628	-0.2801716383	-0.607035
C	-0.1307983198	-0.062861379	-0.1505459865	 0.248158
C	-1.1524476275	-0.9357858616	 0.033021954	 0.204095
C	-2.6237962887	-0.6871085985	 0.0770920966	-0.181635
O	-3.0087454251	 0.3946327793	-0.7720067471	-0.406064
N	-0.5610835764	-2.2055340787	 0.2130810503	-0.421755
C	 0.8170644896	-2.1408316067	 0.1489465528	 0.434392
O	 1.6335269004	-3.0317217532	 0.2770400377	-0.433484
N	 1.0559284836	-0.7879189691	-0.1091154255	-0.380707
H	 0.4276898414	 1.6423619817	-1.0745364966	 0.243123
H	-1.0725280795	 1.6658207569	-0.379439429	 0.25922
H	-3.1646451803	-1.6119100891	-0.1822041241	 0.101131
H	-2.9714949395	-0.3903659497	 1.0749975271	 0.129133
H	-2.7265573576	 0.1613107076	-1.6639391834	 0.283804
H	-1.0391196133	-3.0626245775	 0.4260933204	 0.261703
H	 1.9834472738	-0.4011693352	-0.0969364485	 0.265922
