17
gdb 16231	2.9361	2.29652	1.49478	1.6304	68.96	-0.2374	0.0078	0.2452	858.7239	0.143675	-363.840604	-363.833445	-363.832501	-363.872168	27.959	
O	 0.3137482232	 1.1168740533	-0.6080867542	-0.424019
C	 0.0781865134	-0.1606770077	-0.02655193	 0.012292
C	 0.5400595662	-0.2910778838	 1.4040963752	-0.115813
C	-0.3884691618	-0.8321835415	 2.1921381612	-0.06853
C	-1.6505612196	-1.1838058346	 1.4460993485	-0.324465
C	-1.4071130259	-0.5829457996	 0.0577125297	 0.301937
C	-2.4409495122	 0.1901341947	-0.6760359161	-0.285365
N	-2.0934350911	-1.1807064814	-1.0931932309	-0.364402
H	-0.0809272489	 1.7725941323	-0.0214356489	 0.27542
H	 0.6311180536	-0.8476035539	-0.6830184482	 0.09547
H	 1.5343812959	 0.0189867197	 1.7050541499	 0.100898
H	-0.2659783722	-1.0346309387	 3.2509303509	 0.100268
H	-1.7884879518	-2.2704056424	 1.3751183148	 0.125017
H	-2.5514705974	-0.7891278353	 1.9316714708	 0.108012
H	-3.4345458533	 0.2993637461	-0.248149772	 0.112378
H	-2.1063828211	 1.0178995551	-1.2938738928	 0.119784
H	-1.487904907	-1.1365830021	-1.9110928278	 0.231118
