23
gdb 91758	2.33299	1.68314	1.48443	1.3959	83.1	-0.2369	0.0748	0.3117	1060.291	0.209909	-388.323468	-388.315695	-388.314751	-388.355141	32.447	
C	-0.4790042929	 1.4966747812	-0.0261730395	-0.422319
C	-0.0314331916	 0.0352163311	-0.0361574234	 0.051372
C	 0.7723070784	-0.4215603436	-1.2881582015	-0.264637
C	 1.921802936	-1.2714162088	-0.6855047014	 0.105294
C	 3.2277935526	-0.4827042494	-0.5140382854	-0.200127
C	 2.9749064522	 0.7974446393	 0.3056971899	-0.210093
C	 2.036622501	 0.5290124527	 1.4999558881	-0.205751
C	 0.8872335637	-0.4223706102	 1.1255593413	 0.070241
O	 1.4483081638	-1.6366838896	 0.6182729092	-0.265486
H	 0.3616403346	 2.1878605794	-0.1420682155	 0.119466
H	-1.1799164174	 1.6934442238	-0.8440302663	 0.115709
H	-0.9899671642	 1.7473361771	 0.9101362778	 0.114127
H	-0.9276358708	-0.5912192119	 0.0305507138	 0.079401
H	 0.1515998486	-1.0179781591	-1.96102711	 0.099728
H	 1.1535186566	 0.4265975931	-1.8652299482	 0.096612
H	 2.0965106899	-2.2002643877	-1.2349305647	 0.07008
H	 3.940959681	-1.1316538117	 0.0067845079	 0.100872
H	 3.6630459698	-0.236828615	-1.490046487	 0.088324
H	 3.9225766098	 1.2186583669	 0.6577311957	 0.094489
H	 2.532216332	 1.560098047	-0.3450539356	 0.100308
H	 2.5973009235	 0.0434336438	 2.30713977	 0.10153
H	 1.6477890455	 1.4699740682	 1.9056010212	 0.091845
H	 0.3104853378	-0.6807657566	 2.0190451336	 0.069014
