19
gdb 127030	6.50747	0.7898	0.71373	1.9974	80.37	-0.2091	0.0331	0.2422	1617.3224	0.159064	-419.237527	-419.227874	-419.22693	-419.273626	33.92	
C	-0.0409754548	 1.4697804499	 0.0253619573	-0.392433
C	 0.0264009535	-0.0455704106	-0.0096545229	-0.03071
O	 0.6644305868	-0.478051144	 1.1957659563	-0.278656
C	 0.8143272921	-1.8055368913	 1.3428382148	 0.471678
N	 0.4053618853	-2.6874455441	 0.4413850557	-0.325607
N	 0.7527261956	-3.8835416136	 0.9911067078	-0.285987
C	 1.3607523617	-3.7692185531	 2.1984565346	 0.416731
C	 1.8263695128	-4.9532027363	 2.9812378695	-0.500459
C	 1.420854073	-2.4169840076	 2.4668411524	-0.448705
H	 0.9619614151	 1.9019478618	 0.0866475115	 0.126164
H	-0.5242988379	 1.8439982385	-0.8821068479	 0.116197
H	-0.6157090806	 1.8131994622	 0.8903208914	 0.126168
H	-0.9723467849	-0.4943957265	-0.0740025662	 0.111301
H	 0.598033681	-0.4061153753	-0.8735476292	 0.111323
H	 0.54268103	-4.7254117466	 0.4844341974	 0.264903
H	 2.575161162	-5.5353126216	 2.431705702	 0.135709
H	 2.2805459098	-4.6269889865	 3.9188321162	 0.143895
H	 0.9990980835	-5.6287790362	 3.2276273935	 0.135587
H	 1.8361634261	-1.935839959	 3.3362985857	 0.102899
