18
gdb 81427	2.41065	2.0031	1.48908	3.8738	70.72	-0.2341	0.0603	0.2944	939.1719	0.14796	-439.013356	-439.005702	-439.004758	-439.04498	30.665	
C	-0.0629339002	 1.4788166184	 0.0334462841	-0.499095
C	 0.0643029926	-0.0121931705	-0.0011741179	 0.466132
O	-0.8105325274	-0.8013322096	 0.8170901697	-0.279079
C	 0.6024924277	-0.9034704506	 1.0259374078	 0.00205
C	 1.3115569265	-1.9605803958	 0.1482734009	-0.142424
N	 0.2750520986	-2.1925360785	-0.9176056635	-0.292201
C	 0.5659043471	-0.7580256822	-1.2725558842	-0.154483
C	 2.0507171898	-1.0214129423	-0.8819313212	 0.127875
O	 2.81412934	 0.0838770039	-0.4716284346	-0.430458
H	 0.8610323273	 1.9411775282	-0.3264300293	 0.140945
H	-0.8892399651	 1.8184707937	-0.6012049948	 0.122365
H	-0.2554569212	 1.8202434673	 1.0537260914	 0.128274
H	 0.9890813665	-0.5939675334	 1.9901395347	 0.098061
H	 1.770305297	-2.8297785715	 0.6194289648	 0.068338
H	 0.7104006919	-2.7724164765	-1.6365869258	 0.217391
H	 0.2602469488	-0.3921706614	-2.252598959	 0.069564
H	 2.5701994818	-1.6100549634	-1.6512554381	 0.068392
H	 3.7246796383	-0.1973518357	-0.3401465651	 0.288352
