23
gdb 91361	2.41995	1.60501	1.30533	1.522	84.27	-0.2352	0.0825	0.3177	1121.5714	0.208237	-388.316361	-388.308109	-388.307165	-388.348623	33.675	
C	-0.2551331186	 1.5448529933	-0.0232634265	-0.424893
C	 0.0299052431	 0.0432051042	-0.0165898267	 0.044141
C	 0.7930528461	-0.4918494007	-1.2777690864	-0.234973
C	 1.9059938261	-1.3535261843	-0.6472278413	 0.115291
C	 1.2315580134	-1.9180186711	 0.6103133251	-0.241763
C	 0.9136789245	-0.5029748417	 1.1419454673	-0.050486
C	 2.3177896891	 0.1377213651	 1.0686942066	 0.152402
C	 3.2130096847	-0.0952339153	 2.2802685634	-0.407178
O	 2.9028811029	-0.4748390068	-0.1054565432	-0.298458
H	 0.6528912347	 2.1385486288	-0.1676989395	 0.123377
H	-0.9404784444	 1.8000528911	-0.8385430527	 0.114536
H	-0.7227737265	 1.8673304212	 0.9138677111	 0.109275
H	-0.9351031488	-0.4731960301	 0.0544078524	 0.067733
H	 0.1425817072	-1.0762714596	-1.9361553332	 0.09173
H	 1.2351343906	 0.314982827	-1.8691711543	 0.10342
H	 2.4036613446	-2.0526725026	-1.3205346159	 0.068293
H	 0.3350444143	-2.5089134408	 0.4043956369	 0.092923
H	 1.9155403472	-2.4979945624	 1.2331246304	 0.100285
H	 0.4513937122	-0.4351816895	 2.1286752867	 0.058607
H	 2.2514901937	 1.2183148703	 0.8926081131	 0.068062
H	 3.2522398564	-1.1523392111	 2.5590376572	 0.115119
H	 4.2324382925	 0.2318087192	 2.0551524936	 0.124464
H	 2.8518169648	 0.4778317056	 3.1412212858	 0.108091
