13
gdb 21144	5.12804	1.75007	1.31543	2.8814	66.59	-0.2501	-0.0985	0.1516	876.7777	0.094984	-394.741138	-394.734027	-394.733082	-394.773678	24.816	
C	-0.0628177577	 1.4248389175	 0.0080489924	-0.319573
N	 0.0067760643	-0.0256861144	 0.00287015	-0.28143
C	-1.0626415312	-0.6911843533	 0.0092050325	 0.476404
O	-2.3036280706	-0.0127248991	 0.0214828865	-0.277569
N	-3.512050867	-0.6797935636	 0.0279086323	-0.030824
C	-3.4482589717	-1.9620503579	 0.0227348705	 0.012567
C	-2.1880901549	-2.6804711218	 0.0110217116	-0.006616
N	-1.0547586334	-2.0804265598	 0.0046063102	-0.248906
H	 0.9520112198	 1.8274669853	 0.000050436	 0.125868
H	-0.6011055354	 1.811362541	-0.8674363706	 0.130168
H	-0.5848156046	 1.8056570835	 0.8958191537	 0.130194
H	-4.4031875004	-2.4767712258	 0.02785046	 0.149127
H	-2.1952786771	-3.7697617915	 0.0074658449	 0.140591
