19
gdb 79843	2.57395	1.68044	1.43871	1.5898	73.85	-0.2317	0.0672	0.2989	988.7384	0.160639	-423.000468	-422.992687	-422.991743	-423.032151	31.554	
O	-0.0063047847	 1.4278435948	 0.139005852	-0.433621
C	-0.0079824993	 0.026203846	-0.0456635351	 0.139158
C	-1.373524823	-0.6307053266	-0.0418640228	-0.143071
C	-2.0832485014	-0.4639094824	-1.39452838	-0.122792
C	-1.6749408707	 0.6832606874	-2.3160339171	-0.226127
C	-0.1603426378	 0.4351644118	-2.5731005207	-0.202078
C	 0.2531190812	-0.5618273317	-1.4818631252	-0.182937
C	-0.9877906325	-1.4743624297	-1.2393585729	 0.38038
O	-1.0642897476	-2.8466712858	-1.3573716732	-0.464631
H	 0.9075491897	 1.7261444147	 0.1880457618	 0.281071
H	 0.6453820938	-0.465640302	 0.6876098647	 0.072516
H	-1.9397754729	-0.9140788986	 0.8375345546	 0.086493
H	-3.1069299646	-0.8229610101	-1.3868623593	 0.083443
H	-2.252333757	 0.6635171259	-3.2462512413	 0.087761
H	-1.8399557789	 1.65439858	-1.8434473946	 0.117823
H	 0.0034612578	-0.0063408636	-3.5629545305	 0.086518
H	 0.419902017	 1.360788394	-2.5235618257	 0.091843
H	 1.2192090115	-1.04592377	-1.6290939114	 0.062724
H	-1.2423971304	-3.0629721342	-2.2793441034	 0.285527
