16
gdb 11866	5.0836	1.51873	1.29879	3.8465	73.52	-0.2342	-0.0424	0.1918	938.2426	0.131287	-346.630415	-346.623568	-346.622624	-346.661571	26.635	
O	-0.0036028506	-0.0189469986	 0.0029714909	-0.330708
C	-0.0034831766	 1.190140126	 0.009166854	 0.371458
C	-1.2573162294	 2.0899123794	 0.0322747618	-0.429665
C	-0.708356734	 3.5123377867	 0.0328533955	 0.329126
C	-1.3805049799	 4.6595085288	-0.7013150146	-0.3075
C	-1.3596664866	 4.6508103305	 0.7986618834	-0.307494
C	 0.7647918771	 3.3718460748	 0.0116381887	-0.099497
C	 1.1692369859	 2.0924612257	-0.0013163745	-0.207721
H	-1.8771905709	 1.8664056313	-0.8416483269	 0.133193
H	-1.852281104	 1.8560803924	 0.9206952331	 0.133249
H	-0.7478781652	 5.3700946058	-1.2227141493	 0.119254
H	-2.3153897013	 4.4386790041	-1.20505429	 0.124021
H	-2.2802325602	 4.4240083077	 1.3255839384	 0.124023
H	-0.7126859788	 5.3554088921	 1.3104857358	 0.119257
H	 1.4169178015	 4.2400121186	 0.0077766999	 0.114577
H	 2.1878307031	 1.7283102149	-0.0173175665	 0.114428
