18
gdb 117425	5.75113	0.59223	0.54414	4.5216	74.32	-0.2868	-0.0011	0.2857	1968.4939	0.145452	-439.145595	-439.135324	-439.13438	-439.183205	34.349	
C	-0.2174330387	 1.5224787083	 0.0131053772	-0.39226
C	-0.0270747094	 0.0188168998	 0.0022568295	-0.048097
O	-1.3391293191	-0.5882826934	 0.011154867	-0.246415
C	-1.3663780972	-1.9289292867	 0.0043494662	 0.456032
O	-0.386019559	-2.6319677208	-0.0084272773	-0.355396
C	-2.7958797143	-2.4376616834	 0.0149349417	-0.330326
C	-2.8331175428	-3.9736742818	 0.0070463663	-0.332822
C	-4.1998659887	-4.4885808572	 0.0172268246	 0.255292
N	-5.2860451606	-4.8824991586	 0.0253355007	-0.302223
H	 0.7580008261	 2.0176273674	 0.0065848824	 0.127917
H	-0.7772023118	 1.8525377971	-0.8663515252	 0.133033
H	-0.7599678865	 1.8419294125	 0.9071573486	 0.133028
H	 0.5110121728	-0.3226802873	-0.8873282688	 0.126596
H	 0.5279164675	-0.3333161752	 0.8771783377	 0.12663
H	-3.3066905688	-2.0360781451	 0.8958668061	 0.155519
H	-3.322984211	-2.0266837439	-0.851951811	 0.155515
H	-2.3100834782	-4.3569853259	-0.8743245263	 0.168985
H	-2.2935600101	-4.3663547856	 0.8742146206	 0.168993
