19
gdb 111954	3.15978	1.14	0.89825	2.475	77.14	-0.25	-0.0283	0.2217	1318.669	0.158138	-423.054241	-423.045109	-423.044164	-423.088573	33.723	
C	-0.0300241089	 1.674055074	 0.280704269	-0.393227
C	 0.0587870433	 0.1711283472	 0.0057164713	-0.173881
C	-1.3118985529	-0.5050311867	-0.1618178277	-0.156161
C	-2.0652347401	-0.2144606458	-1.4440483752	-0.076111
C	-2.5398907996	-1.3106442691	-2.0406001886	-0.103274
C	-2.2624018341	-2.5551561687	-1.2391148275	 0.019567
O	-1.7773584231	-3.6471418047	-1.9836614865	-0.440621
C	-1.2191409366	-2.0342752728	-0.2359574966	 0.347588
O	-0.3967155792	-2.7434832484	 0.2863080807	-0.325059
H	 0.967261118	 2.1065214288	 0.4051698029	 0.120186
H	-0.5201920293	 2.2103639737	-0.5387381288	 0.117991
H	-0.5975054954	 1.8767907494	 1.1958562043	 0.1169
H	 0.6553700576	-0.0113155771	-0.8960964624	 0.106271
H	 0.580654002	-0.3326742874	 0.8262400488	 0.121728
H	-1.9301919971	-0.2503637732	 0.7152534159	 0.109406
H	-2.1924742286	 0.7951953113	-1.81815724	 0.107548
H	-3.101759449	-1.3375810718	-2.9662830783	 0.113143
H	-3.1674037025	-2.8500581284	-0.6727095779	 0.094532
H	-1.1172089645	-4.0764210602	-1.4211367435	 0.293473
