16
gdb 22092	2.56205	1.03483	0.81387	0.9069	70.6	-0.2437	-0.1014	0.1423	1378.0313	0.119854	-474.999547	-474.989494	-474.988549	-475.037279	34.007	
C	 0.3545341021	 1.5385605491	-0.4851551427	-0.490417
C	-0.0059702155	 0.2056809331	 0.1042779313	 0.344238
C	 0.0562158525	 0.036752222	 1.6105911086	-0.376993
C	 1.5043287922	-0.0245246812	 2.0686195773	 0.287179
O	 2.2753651488	 0.9070710099	 2.0594936974	-0.276061
C	 2.0305837762	-1.3797428436	 2.5710308498	 0.092145
O	 1.3377048565	-2.346331111	 2.7401456519	-0.203223
N	-0.3662198516	-0.8378170263	-0.5406698432	-0.148324
O	-0.4163871427	-0.6246148	-1.9226914781	-0.392283
H	 1.1951666181	 1.9747971614	 0.0608303225	 0.156716
H	 0.6000694757	 1.4475533141	-1.5427066667	 0.154665
H	-0.4918753898	 2.2302083964	-0.3879000135	 0.140144
H	-0.4137790782	 0.8983860105	 2.098121117	 0.136003
H	-0.4547185479	-0.8821222956	 1.8989832098	 0.154868
H	 3.1189318031	-1.3548501953	 2.788653457	 0.111395
H	-0.6790176694	-1.4915733935	-2.2497851383	 0.309948
