21
gdb 116240	2.074	1.46894	1.0176	4.6839	82.06	-0.236	0.0339	0.2699	1255.4133	0.184069	-383.29223	-383.282863	-383.281919	-383.326884	34.555	
C	 0.1693021405	 1.5913300649	 0.1689516629	-0.392059
C	 0.0899930884	 0.062730884	 0.0902849781	-0.205623
C	 0.6062043793	-0.519271877	-1.2265953917	 0.03305
C	 0.6491756029	-2.0539261428	-1.2985393514	-0.225248
C	 0.8441396016	-2.3174873965	-2.7923103844	-0.164119
N	-0.004882918	-1.3004748032	-3.4276339696	-0.28843
C	-0.1893475783	-0.1575201048	-2.5230637367	-0.155927
C	-1.6309585409	 0.0575828087	-2.2684137746	 0.312319
N	-2.7553393078	 0.2389882771	-2.0696273013	-0.344895
H	 1.1946683209	 1.9447022335	 0.010737805	 0.11007
H	-0.4718068527	 2.0662375714	-0.5803526587	 0.129888
H	-0.1578767954	 1.9485569628	 1.1496942855	 0.120625
H	 0.6818392111	-0.3739530333	 0.9041527893	 0.095567
H	-0.9442266708	-0.2627830492	 0.2512296087	 0.124914
H	 1.6257923246	-0.1463734501	-1.3946351565	 0.080511
H	 1.446623114	-2.4803890757	-0.6854452457	 0.105262
H	-0.3042338853	-2.4738245087	-0.9577454251	 0.121643
H	 1.9086722397	-2.2109716726	-3.0571286879	 0.08793
H	 0.5281809207	-3.3223517331	-3.091881621	 0.110559
H	 0.3048886288	-1.024626606	-4.3478690239	 0.229349
H	 0.1914968266	 0.7773369905	-2.951573531	 0.114615
