20
gdb 17204	4.08883	1.76137	1.52953	0.168	78.42	-0.2549	0.0837	0.3386	917.6907	0.178442	-311.82899	-311.821812	-311.820867	-311.860661	28.752	
C	-0.3555283361	 1.3469216915	 0.1367496973	-0.321247
C	 1.0989563643	 0.971325538	-0.031383704	-0.331224
C	 0.0460422491	-0.0961504351	 0.0292195803	 0.400437
C	-0.0735789036	-1.190438425	 1.105991537	-0.318891
C	-0.4999377797	-2.1961442855	 0.002665234	-0.001283
C	-2.0229347102	-2.2273371873	-0.3041748576	-0.219775
C	-1.8297294464	-1.1666772172	-1.4313644173	-0.219207
C	-0.3182331661	-1.0787445635	-1.0936775746	-0.110511
H	-0.6807480084	 1.716279583	 1.1045043548	 0.108372
H	-0.86598661	 1.8024052506	-0.7065831015	 0.109521
H	 1.5695939876	 1.1717927653	-0.9891701866	 0.108488
H	 1.7605445376	 1.0848985389	 0.8223101782	 0.107477
H	 0.8830704491	-1.4379204251	 1.5771753344	 0.096247
H	-0.8124111627	-1.0199192901	 1.8968389798	 0.09143
H	 0.0274150303	-3.1501380279	-0.0255199564	 0.060665
H	-2.3831609514	-3.1928206039	-0.6679574273	 0.097639
H	-2.6620329371	-1.9224363479	 0.5299879802	 0.094151
H	-2.0231429596	-1.5680501492	-2.4296479954	 0.094913
H	-2.3898187791	-0.2334741462	-1.3240541194	 0.095035
H	 0.3887710124	-1.1535744334	-1.9227464458	 0.057763
