18
gdb 22539	2.35285	1.08475	0.82116	1.6393	77.15	-0.253	0.0019	0.2549	1402.227	0.143451	-439.00562	-438.994999	-438.994055	-439.041984	37.669	
C	-0.0318319729	 1.4916772718	-0.0160263923	-0.471634
C	 0.0239884049	-0.0092525788	 0.0606582333	 0.359985
N	 0.1104269374	-0.6732152477	 1.1470229637	-0.162082
O	 0.1503156097	 0.1682572288	 2.2669451153	-0.401065
C	 0.0090194992	-0.820616709	-1.22661552	-0.246304
C	 0.1627982756	-2.347321044	-1.0193711384	-0.067376
O	 0.2408944626	-3.0271398829	-2.2545026835	-0.425932
C	-1.203622924	-0.5462979558	-2.0029028551	 0.313591
C	-2.2083108896	-0.3742801485	-2.6418489575	-0.486372
H	 0.9119523983	 1.9229761978	 0.3352929683	 0.146714
H	-0.2223544521	 1.8288542304	-1.0358236679	 0.130774
H	-0.8161193869	 1.8763618497	 0.6419744462	 0.152883
H	 0.1981751255	-0.4623524269	 2.9933567218	 0.307847
H	 0.8687647667	-0.494715441	-1.8319760347	 0.126651
H	 1.0970046708	-2.5431132787	-0.4895760494	 0.123022
H	-0.660477993	-2.7133505447	-0.3931349834	 0.109348
H	-0.5795787087	-2.852224731	-2.730400353	 0.285002
H	-3.0923520137	-0.1991024096	-3.2041443532	 0.204947
