19
gdb 85498	2.51035	1.26142	0.96481	2.0696	75.64	-0.2482	-0.0361	0.212	1242.0777	0.157501	-423.072426	-423.063313	-423.062369	-423.107118	33.231	
C	-0.730535736	 1.3049763094	 0.1215635771	-0.410798
C	 0.1084180518	 0.0370592027	-0.027845597	 0.001462
C	 1.2136919966	 0.0989111527	-1.0941495782	-0.33154
C	 2.233310961	-0.9675072634	-0.6841989563	 0.404791
O	 3.1342526364	-1.3876786495	-1.360215924	-0.305277
C	 1.9095975888	-1.4190389755	 0.748503404	-0.355901
C	 0.8513257305	-0.4291450151	 1.2740786841	-0.107907
C	 1.5071171115	 0.7302283664	 1.995830547	 0.170666
O	 1.1098718939	 1.2035982016	 3.0290847267	-0.255014
H	-0.1082988136	 2.178857986	 0.3421071385	 0.126198
H	-1.2819286688	 1.5144207185	-0.8002490497	 0.120281
H	-1.4563582096	 1.2044675498	 0.9345589171	 0.130725
H	-0.5638167788	-0.7901183618	-0.2912087352	 0.091919
H	 0.868569178	-0.0626972985	-2.1182050921	 0.133158
H	 1.7242184368	 1.0721708122	-1.0822171578	 0.133248
H	 1.4948519158	-2.4325769628	 0.693338492	 0.142945
H	 2.8218669236	-1.4854364744	 1.3482953006	 0.138077
H	 0.1455667319	-0.879346676	 1.9761058546	 0.098114
H	 2.4198120902	 1.1398993576	 1.4994774284	 0.074852
