18
gdb 128417	3.71754	0.98446	0.91922	3.1978	74.4	-0.226	-0.0231	0.2029	1350.7223	0.148816	-431.425212	-431.416008	-431.415064	-431.461995	31.467	
C	-0.2724793691	 0.7487611728	 1.1798303078	-0.315301
N	 0.0527565331	 0.2136809197	-0.1384594427	-0.269458
C	 1.1393375836	-0.7603401919	-0.1353715918	-0.265782
C	 0.8840855517	-2.0218784271	 0.6468335393	 0.379737
N	-0.1279031449	-2.8527147981	 0.3986375225	-0.309592
N	 0.0509712044	-3.782059346	 1.3279590493	 0.156883
C	-0.8126658783	-4.9356420429	 1.4816216997	-0.318964
N	 1.0989030777	-3.5641775221	 2.1109619426	-0.129538
N	 1.6377642073	-2.445660927	 1.6915767743	-0.257006
H	 0.5901694044	 1.3020746891	 1.5674657133	 0.126439
H	-1.1048534338	 1.4519780681	 1.0854589361	 0.119397
H	-0.5462064989	-0.0095027173	 1.932312702	 0.102868
H	-0.7716808039	-0.2146747007	-0.5465754603	 0.227406
H	 1.3603896959	-1.025854311	-1.1752025019	 0.123144
H	 2.0376312262	-0.2928430502	 0.2801736097	 0.133073
H	-0.8035103239	-5.5288770002	 0.5649074893	 0.162055
H	-0.4258553653	-5.5218286552	 2.3140943008	 0.173596
H	-1.8331892463	-4.60858192	 1.69146289	 0.161044
