19
gdb 93541	2.78263	1.37999	1.0655	2.9838	79.26	-0.2133	0.0173	0.2306	1166.0928	0.162493	-419.263885	-419.255497	-419.254553	-419.296858	32.286	
C	-0.6947750631	 1.4496841891	-0.119054755	-0.382641
C	-0.0492798039	 0.0592202322	 0.0210011117	-0.03114
C	 0.7863915043	-0.3098030168	-1.2116630322	-0.20226
N	 1.9215717359	 0.5818136314	-1.434313732	-0.3231
C	 3.1261724623	 0.4952114514	-0.7812925718	 0.420202
O	 4.1773048309	 0.8638214884	-1.275140665	-0.401089
N	 3.1001019506	-0.0326309499	 0.5078573107	-0.350996
C	 2.0697493501	-0.1203559933	 1.4486227367	 0.003978
C	 0.7431128439	-0.074833403	 1.2924833736	-0.09373
H	 0.073599578	 2.2160671236	-0.251727174	 0.130154
H	-1.3701710981	 1.4827380605	-0.9819086402	 0.104629
H	-1.2753906889	 1.7028570571	 0.7729612916	 0.11441
H	-0.864330427	-0.6789521726	 0.0669652107	 0.078666
H	 1.1234663255	-1.3510426777	-1.1251259986	 0.118373
H	 0.1575302893	-0.2465439279	-2.1041917455	 0.110226
H	 2.054133238	 0.9209776279	-2.3744047666	 0.252727
H	 4.0357965027	-0.0532970158	 0.8824728465	 0.257403
H	 2.4676224282	-0.2533525677	 2.449954375	 0.107441
H	 0.1633482112	-0.1478234068	 2.2080062245	 0.086749
