19
gdb 38967	2.87199	1.78051	1.51127	2.2049	72.56	-0.236	0.0781	0.3141	943.5772	0.162697	-423.025128	-423.018166	-423.017222	-423.056688	27.859	
C	-0.1448252613	 1.0658799228	-0.1830494699	-0.070634
C	 1.0314078278	 1.8212358646	 0.4768774591	-0.239858
C	 2.1802194061	 0.7816636733	 0.5595312194	-0.038449
C	 2.698601942	 0.4173428571	 1.9732994128	-0.26744
C	 1.907045019	-0.8133163386	 2.3717246465	 0.049919
O	 0.4923712016	-0.6412810087	 2.2180484323	-0.258028
C	 1.2101181652	-1.3613890568	 1.2009519739	 0.016459
C	 1.5262974671	-0.5101861167	-0.0205766619	 0.084583
O	 0.4062963374	-0.1088108159	-0.7819833149	-0.264666
H	-0.8995313289	 0.7941351309	 0.5630065217	 0.113209
H	-0.6296631078	 1.6363853381	-0.9806766749	 0.098766
H	 1.3337684741	 2.6802668367	-0.1274733424	 0.101033
H	 0.7507999982	 2.1933699406	 1.4645112088	 0.109331
H	 3.0088907693	 1.1027145192	-0.0736284689	 0.080548
H	 3.7651348578	 0.1644136397	 1.947193843	 0.103299
H	 2.5783064258	 1.2347555448	 2.6918455091	 0.112209
H	 2.2098108654	-1.4272762477	 3.2166204371	 0.094369
H	 0.9412767807	-2.4094985062	 1.0979420361	 0.09707
H	 2.1873115203	-1.0711851769	-0.691313027	 0.078279
