17
gdb 68179	4.42859	1.12714	1.03785	1.679	84.52	-0.2246	-0.0342	0.1904	1183.3858	0.134461	-384.622544	-384.614538	-384.613594	-384.65473	31.664	
C	 0.0711100221	 1.5413402836	 0.0541088309	-0.509037
C	 0.0085521513	 0.0430051769	-0.0236967126	 0.378168
C	 0.6272908762	-0.8250283643	-1.1727826751	-0.25668
C	 0.612193133	-1.8100349914	 0.0259022468	-0.05499
O	 0.9075403425	-0.6821085419	 0.8970259925	-0.309992
C	-0.9178596069	-1.9879868315	 0.25600372	 0.298251
C	-1.3172691692	-0.7058158728	 0.2218828734	-0.281129
C	-1.6048708878	-3.1983517843	 0.4277850262	 0.108279
C	-2.1477089127	-4.266212822	 0.5693091222	-0.374293
H	 1.0887031547	 1.8960431745	-0.127699975	 0.13194
H	-0.5928232027	 1.9886868263	-0.6925049303	 0.126175
H	-0.2437169505	 1.886644325	 1.0437835161	 0.136975
H	 0.0202146427	-1.0493595865	-2.0521367247	 0.102316
H	 1.637071367	-0.5009340725	-1.4368830265	 0.107102
H	 1.2703262693	-2.6694441748	 0.1372155279	 0.08995
H	-2.3036590543	-0.2785750896	 0.3266340124	 0.119413
H	-2.6402864648	-5.1977994148	 0.6984179959	 0.187554
