25
gdb 112907	1.96384	1.25297	0.84889	1.4457	88.5	-0.2561	0.0744	0.3305	1474.3593	0.229277	-389.512059	-389.501867	-389.500923	-389.54728	39.003	
C	 0.0261606142	 1.5978483922	-0.1725009092	-0.385757
C	 0.0276604936	 0.0656487979	-0.2065359491	-0.1788
C	-1.3665571015	-0.5445970129	 0.0146479028	 0.020783
C	-2.3568280453	-0.1709597469	-1.128277412	-0.220059
C	-2.9984587092	-1.4813395924	-1.6065232475	 0.126536
O	-3.3648125013	-1.351170182	-2.9714551579	-0.440664
C	-1.9200143099	-2.5311450365	-1.3119469874	-0.245093
C	-1.4053346194	-2.1143109254	 0.0740593709	 0.022708
C	-0.1263218646	-2.8248961983	 0.5169148405	-0.414451
H	 1.0352254505	 1.9967732754	-0.3163372951	 0.10914
H	-0.6113027286	 2.0214345244	-0.9551290095	 0.120635
H	-0.3440115937	 1.967923384	 0.7906036157	 0.111027
H	 0.4327976284	-0.2774241705	-1.1682475793	 0.093208
H	 0.7151523791	-0.3006371374	 0.5644263585	 0.092787
H	-1.7358798216	-0.1542401587	 0.97101203	 0.060465
H	-3.1019229312	 0.5710084558	-0.8310946184	 0.096766
H	-1.8148297419	 0.2469790643	-1.9845218696	 0.109505
H	-3.8893058802	-1.7060351412	-0.9964815019	 0.059155
H	-3.7883000614	-2.170768923	-3.2448107006	 0.278633
H	-2.2931713488	-3.5611722206	-1.3389176145	 0.080014
H	-1.1280834341	-2.4420984642	-2.0674898774	 0.098586
H	-2.1897252158	-2.3785368161	 0.7971487237	 0.069015
H	 0.701158433	-2.6469685973	-0.1771356846	 0.116787
H	 0.1947921834	-2.4975865534	 1.5117581793	 0.111792
H	-0.2882435336	-3.9071819572	 0.5647489226	 0.107283
