20
gdb 19688	4.43869	1.58758	1.47226	0.2332	77.52	-0.2424	0.0866	0.329	955.2551	0.178623	-311.821412	-311.814232	-311.813288	-311.852786	28.727	
C	-0.1550144465	 1.5308941612	-0.0142897179	-0.376946
C	 0.0465846979	 0.0134444867	 0.061989349	-0.21085
C	 0.6647050701	-0.5694787291	-1.2056796436	 0.053587
C	 0.7930659251	-2.0795978374	-1.4084503592	-0.0909
C	-0.4949033357	-2.5805612573	-2.088141567	-0.059759
C	-1.4084209427	-1.3770371007	-2.3060986633	-0.232459
C	-0.1047595434	-0.5732160829	-2.5687153036	-0.077771
C	 0.6103010074	-1.9481587938	-2.8994734866	-0.08446
H	 0.7947302046	 2.0478418032	-0.192706559	 0.111877
H	-0.834457436	 1.8005566518	-0.8302326621	 0.116496
H	-0.5790865161	 1.9257636296	 0.9141380453	 0.109923
H	 0.7027406813	-0.2269802182	 0.9093910342	 0.090884
H	-0.9086624832	-0.4779528983	 0.2781648277	 0.097431
H	 1.6472642152	-0.1101843507	-1.3755522834	 0.063987
H	 1.4407759423	-2.7703736163	-0.8821925431	 0.077011
H	-0.7657115571	-3.6280918533	-2.0472704167	 0.079983
H	-1.9876851347	-1.4912474301	-3.2269466465	 0.095667
H	-2.0732226468	-1.0459314035	-1.500507075	 0.086693
H	-0.1170198754	 0.3132446023	-3.1997544068	 0.064318
H	 1.1956169636	-2.3021010531	-3.7352581126	 0.085288
