18
gdb 97234	3.5537	1.22696	0.95544	1.1183	79.99	-0.2238	0.0022	0.226	1230.2973	0.149557	-435.280272	-435.271693	-435.270749	-435.314124	31.123	
C	-0.1027146165	 1.4942701697	-0.5904333311	-0.320182
N	 0.023159607	 0.0917211513	-0.2442686646	-0.342432
C	-0.965993444	-0.5149602168	 0.2619390339	 0.474263
N	-0.7800830558	-1.8457952951	 0.6567943044	-0.366948
C	-1.658455371	-2.9003393158	 0.8801572199	 0.097433
N	-2.9133348316	-2.9542930678	 1.0502688931	-0.248325
C	-3.7422001619	-1.7673049463	 1.037552117	-0.156484
C	-3.0634152164	-0.4676546216	 1.4493533696	-0.110064
O	-2.1853801933	 0.0352072092	 0.4333340637	-0.250405
H	 0.8519947125	 1.9944651806	-0.398908587	 0.118518
H	-0.3123297951	 1.6042335959	-1.6625956883	 0.12266
H	-0.8949205943	 2.0166239343	-0.0405495485	 0.114647
H	 0.184178576	-2.1107796315	 0.5167165928	 0.264148
H	-1.1041193936	-3.8393697432	 0.9320138584	 0.116585
H	-4.1784139749	-1.6316734481	 0.0378863421	 0.123902
H	-4.586311357	-1.9412213856	 1.7176454783	 0.112204
H	-3.8083268856	 0.3210206642	 1.5829686317	 0.125104
H	-2.5163810047	-0.5902543836	 2.3916949248	 0.125375
