16
gdb 128139	2.00338	1.80329	1.00652	2.4557	68.55	-0.2089	0.027	0.2359	1144.6451	0.124867	-471.18784	-471.179028	-471.178084	-471.221409	32.488	
C	 0.0764057281	 1.4748251072	-0.23209409	-0.327668
N	-0.0250343197	 0.0272977786	 0.0007298063	-0.413265
C	 0.6506263941	-0.4424786157	 1.1496051956	-0.068844
C	 1.7929727747	-1.1997704598	 1.1604039375	 0.478853
N	 2.5869390335	-1.6287003826	 0.1320268315	-0.590478
O	 2.1756812832	-1.4860003435	 2.4076694685	-0.22908
N	 1.2442933617	-0.9030446378	 3.3176391937	-0.287536
C	 0.37988457	-0.2977364822	 2.5413605186	 0.426709
O	-0.6711354458	 0.3735129591	 3.0430743292	-0.426781
H	 1.1257874573	 1.7390564795	-0.3914914165	 0.130035
H	-0.4806616223	 1.7303523677	-1.1386862479	 0.115113
H	-0.3070416536	 2.0838097965	 0.5995196648	 0.119189
H	-1.0019945174	-0.2441802127	 0.0244640136	 0.231739
H	 2.1048049647	-1.6130814077	-0.756724704	 0.267743
H	 3.0917116601	-2.48562209	 0.3083536507	 0.265116
H	-0.6285517286	 0.3033978735	 4.0063013984	 0.309157
