17
gdb 29198	3.00631	1.42993	0.98077	5.1918	81.46	-0.2237	-0.0557	0.168	1182.8736	0.135775	-418.049124	-418.040678	-418.039733	-418.082326	31.539	
C	-0.035199528	 1.5350684694	-0.0332403633	-0.500962
C	-0.0093465956	 0.0324970095	-0.0097530351	 0.143872
C	-0.0300556804	-0.6989156303	-1.1396313153	 0.022687
O	-0.0083605768	-2.0374301403	-1.1593143133	-0.225926
C	 0.0390066743	-2.7578761061	 0.0631299871	 0.417196
N	 0.060503917	-4.0226371704	 0.0286538439	-0.523034
N	 0.0618415803	-2.0397189942	 1.2387375963	-0.316996
C	 0.0396990369	-0.7439019349	 1.2216333342	 0.273075
C	 0.0664394727	-0.0339198006	 2.5459277472	-0.482146
H	 0.8528668375	 1.9663511899	 0.4426023936	 0.136471
H	-0.0714655187	 1.9048940183	-1.0619116938	 0.128793
H	-0.9078824175	 1.9368733802	 0.4940844066	 0.136471
H	-0.0662459848	-0.2793852969	-2.1404891019	 0.134585
H	 0.0380853894	-4.348964746	-0.9367314135	 0.2233
H	 0.1022504411	-0.7657367689	 3.3524592561	 0.155409
H	 0.9373643056	 0.6281337225	 2.6155811693	 0.138596
H	-0.820596623	 0.5987011288	 2.666929942	 0.13861
