20
gdb 101415	3.14317	1.01389	0.92544	3.5169	75.55	-0.2206	0.0059	0.2264	1358.7734	0.169971	-440.291838	-440.282198	-440.281254	-440.327076	34.431	
C	 0.0270193512	 1.6133147844	 0.1970738235	-0.396028
C	 0.0081826461	 0.0935218665	 0.0348908898	-0.123226
N	-1.3471409403	-0.4524296193	-0.1134065098	-0.060883
C	-1.9975640714	-0.0405487123	-1.3551468906	-0.349941
C	-1.4126929078	-1.8680174738	 0.1285412724	-0.136792
C	-2.7821499535	-2.5666956986	 0.3081870355	-0.114777
O	-2.4514146466	-3.521151276	-0.7472187619	-0.239758
C	-1.2559231804	-2.8983269445	-1.0270676455	 0.422708
O	-0.4901641347	-3.1545563238	-1.8993245243	-0.324865
H	 1.0404920608	 1.9452560584	 0.4418612724	 0.119781
H	-0.2722475323	 2.1338831165	-0.7167979878	 0.123534
H	-0.6441803749	 1.9217150109	 1.0041678904	 0.1243
H	 0.6567287134	-0.1995370021	-0.8095666218	 0.104879
H	 0.4406361081	-0.3595545012	 0.9338612771	 0.102885
H	-1.451358594	-0.3692533948	-2.2552688468	 0.124501
H	-3.0099333316	-0.4503853868	-1.4043638318	 0.125322
H	-2.0900124129	 1.0467726686	-1.3841426295	 0.128371
H	-0.7282355505	-2.1197210334	 0.9433481457	 0.115727
H	-2.946413824	-3.0771265813	 1.2589402022	 0.125568
H	-3.6556403149	-1.9711650974	 0.0381878405	 0.128694
