16
gdb 17711	6.04834	1.44834	1.41233	0.2957	64.2	-0.2579	0.0634	0.3212	892.6179	0.130684	-383.652974	-383.646241	-383.645296	-383.683518	26.857	
O	 0.2116920258	 1.4120106939	-0.1906019591	-0.446161
C	 0.085971764	 0.0208786089	-0.0610937985	 0.153811
C	 0.0376444474	-0.633263108	 1.3350299424	-0.098626
C	-1.4889983945	-0.2967817708	 1.5201536527	-0.124725
C	-1.803265238	-1.7642787809	 1.875277334	 0.153811
O	-3.0906915395	-2.2840174389	 1.6746942357	-0.446162
C	-0.7338262175	-1.8760631738	 0.7692982585	-0.098641
C	-1.3082637453	-0.6365327697	-0.0128277281	-0.124741
H	-0.3933550693	 1.8308176258	 0.431632168	 0.281816
H	 0.7970797306	-0.4130309267	-0.7707164663	 0.086126
H	 0.7892674349	-0.6534500785	 2.1253576647	 0.076761
H	-1.9153433604	 0.6139490191	 1.9458957727	 0.071015
H	-1.4982417692	-2.0925634397	 2.8736290624	 0.086127
H	-3.3889503772	-2.0254996027	 0.7955661067	 0.281816
H	-0.278998127	-2.7608309496	 0.3217697714	 0.07676
H	-2.0849430048	-0.6448826486	-0.7803942372	 0.071014
