19
gdb 106642	2.88051	1.24609	1.00163	3.1762	77.1	-0.2367	-0.021	0.2157	1244.9252	0.156163	-423.022401	-423.012914	-423.01197	-423.056918	34.589	
C	 0.0049188969	 1.4482927887	 0.3733150425	-0.380272
C	 0.0101909198	 0.0143386682	-0.1764364982	-0.299264
C	-1.3683996793	-0.5554166251	-0.3023498947	 0.355303
C	-2.4802105223	-0.1776721959	-1.3014697872	-0.426499
C	-2.9472424426	-1.6594902531	-1.179255399	 0.399363
O	-3.7185731945	-2.3369605878	-1.7915070015	-0.302552
C	-1.8608811307	-1.960746303	-0.1483967593	 0.202171
C	-1.2230422994	-3.2570675228	 0.2198527526	-0.515498
O	-2.0655520909	-0.9573707253	 0.8809801305	-0.316428
H	 1.024997794	 1.8324125566	 0.4616130875	 0.119043
H	-0.5528935643	 2.1233545272	-0.2836516567	 0.123508
H	-0.4599713683	 1.4801728985	 1.3628471736	 0.137241
H	 0.4902311335	-0.0077535075	-1.1625048825	 0.10894
H	 0.5980262502	-0.6341754469	 0.4823836737	 0.112752
H	-3.1726197192	 0.5961383778	-0.9644374909	 0.13295
H	-2.1441857455	 0.0351906317	-2.3213118011	 0.127854
H	-0.9550923283	-3.8201825427	-0.6791514856	 0.138218
H	-0.3227789877	-3.0900803704	 0.8171853306	 0.135749
H	-1.9142072913	-3.8701661884	 0.8071239857	 0.147418
