19
gdb 54259	2.38637	1.41753	1.33072	2.0035	70.76	-0.2375	-0.0181	0.2195	1093.3558	0.157039	-460.185509	-460.176071	-460.175126	-460.220671	33.839	
C	-0.0786156661	 1.4781958877	 0.2677945655	-0.475995
C	 0.0093293289	 0.0089516179	-0.0747499908	 0.352527
O	 1.0454477188	-0.5342889815	-0.3832857764	-0.317792
C	-1.2957381536	-0.8190297186	-0.0470673757	 0.265155
C	-1.6832697765	-1.1756786964	-1.4829013858	-0.433108
C	-1.1355567424	-2.0453663895	 0.8769712115	-0.141754
O	-1.6021927827	-1.5644125272	 2.1290634273	-0.240674
C	-2.6830626312	-0.7368008441	 1.7963450398	 0.014357
O	-2.3473204258	-0.0757865361	 0.5855282287	-0.301569
H	 0.8802736326	 1.9560626546	 0.0644767556	 0.136367
H	-0.8830323831	 1.9637764231	-0.2924033511	 0.146375
H	-0.3339702781	 1.5914554543	 1.3266893342	 0.151616
H	-0.8798796039	-1.7490147323	-1.9527934619	 0.144409
H	-2.6024286601	-1.7676954589	-1.4876158812	 0.122251
H	-1.855383595	-0.2720380213	-2.0747586925	 0.129931
H	-1.7551311289	-2.8822274834	 0.5194424854	 0.093579
H	-0.1000602667	-2.369071009	 0.9768628089	 0.145159
H	-3.6053402706	-1.3265142228	 1.6487296565	 0.089581
H	-2.8298543255	-0.0030453065	 2.5950552522	 0.119586
