12
gdb 5182	8.05652	1.25277	1.08801	4.1565	58.08	-0.23	-0.0153	0.2147	988.9973	0.084993	-414.71371	-414.706937	-414.705993	-414.745694	23.621	
O	 0.0798158623	-0.031857803	 0.0529409897	-0.253467
C	 0.0014971436	 1.1510808527	-0.0375184589	 0.16251
O	 1.1093672866	 1.9422209145	 0.1730334724	-0.234817
C	 0.9481529327	 3.2902749681	 0.1148881212	 0.489333
N	-0.1574650643	 3.9771249788	 0.1781510636	-0.344515
C	 0.2525815409	 5.2967232266	 0.0814719568	-0.08283
C	 1.6103575749	 5.3768105431	-0.0300306108	-0.105071
N	 2.0548058733	 4.0630397135	-0.0093820614	-0.318628
H	-0.8892903821	 1.744197894	-0.282112058	 0.14762
H	-0.4636211235	 6.1026556916	 0.1065340013	 0.120438
H	 2.292189951	 6.2055912225	-0.1121829581	 0.139465
H	 3.0023154145	 3.7307259976	-0.0735571878	 0.279962
