21
gdb 68216	3.5407	1.29957	1.21889	1.8797	82.43	-0.2529	0.0855	0.3384	1125.7511	0.183483	-387.068753	-387.060932	-387.059988	-387.100558	32.2	
C	-0.0213019228	 1.5136104	 0.0738845964	-0.49537
C	 0.0217765461	 0.004454217	 0.0230197865	 0.34173
C	 0.9329517908	-0.7754474406	-0.9803233893	-0.266672
C	 0.7160635643	-1.9449526191	 0.0249057605	-0.100929
C	 0.7115730854	-0.8525534445	 1.1342299816	-0.266481
C	-0.7757964228	-2.1895139888	-0.1376438805	 0.509407
C	-1.3902600516	-3.3609771549	-0.7599912479	-0.289846
O	-1.4138821373	-3.1790086742	 0.6649397886	-0.298293
C	-1.3199799789	-0.7491835288	-0.1513972453	-0.348372
H	 0.9821337073	 1.9362796657	 0.1922738951	 0.112273
H	-0.4530042322	 1.929139968	-0.8442051638	 0.114626
H	-0.6330858505	 1.8637205994	 0.9133956564	 0.117166
H	 0.5803452888	-0.9022990794	-2.008939214	 0.088388
H	 1.9633432229	-0.4107496085	-0.9774293968	 0.095727
H	 1.3621019409	-2.8212595279	 0.0628098479	 0.063877
H	 1.7160289386	-0.4916503753	 1.369539942	 0.093034
H	 0.155104977	-1.0577413877	 2.0532004032	 0.1023
H	-2.3560900483	-3.2700327408	-1.2566095125	 0.109683
H	-0.7666912072	-4.1820337895	-1.113782787	 0.1093
H	-2.0130902647	-0.5830050776	 0.6789955949	 0.110736
H	-1.8282429858	-0.4882357324	-1.0855188661	 0.097716
