17
gdb 30070	3.09656	1.24971	1.00458	3.6237	79.83	-0.2194	0.0266	0.246	1188.0736	0.136341	-380.873422	-380.864718	-380.863774	-380.907186	31.701	
C	 0.3239664274	 1.3565356	 0.2153458111	-0.350503
N	 0.1006106739	-0.0707718772	 0.0902388498	-0.041946
C	-0.0500148329	-0.766697423	-1.0747236601	-0.000856
N	-0.25898166	-2.0468020127	-0.8733157733	-0.272931
C	-0.2437084372	-2.1944068287	 0.4919400952	-0.164607
C	-0.0243052069	-0.9919583839	 1.1153495606	 0.279157
C	 0.0679631888	-0.6374863483	 2.5707146984	-0.47251
C	 1.3844211005	-0.1504835642	 2.9906325342	 0.310499
C	 2.46436452	 0.2579223955	 3.3247455626	-0.455651
H	 1.2176345503	 1.555743974	 0.8116976405	 0.161105
H	 0.4585723666	 1.7785053234	-0.7822351828	 0.144135
H	-0.5315844814	 1.8509215852	 0.6880302333	 0.139805
H	 0.0055179209	-0.2741797601	-2.0350885248	 0.123693
H	-0.3879319643	-3.1574903826	 0.9595706039	 0.106603
H	-0.6911303514	 0.1109823356	 2.8407115042	 0.138926
H	-0.1850787623	-1.53568424	 3.1452421856	 0.153581
H	 3.4215647878	 0.603985977	 3.6276157317	 0.201502
