17
gdb 5541	3.06497	1.97966	1.29717	1.9294	71.47	-0.1897	0.0542	0.2439	957.8914	0.141955	-363.88951	-363.881014	-363.88007	-363.923032	30.236	
C	 0.1814816619	 0.9695177971	-0.4539735049	-0.24684
O	-0.4368077157	 0.256491989	 0.6176787262	-0.269459
C	 0.4060274858	-0.5250350129	 1.3425714518	 0.268733
C	 0.7757315305	-1.8411003571	 1.181852253	 0.185482
C	 0.3362664715	-2.7517463184	 0.0763802991	-0.510844
C	 1.6399135878	-2.1434719998	 2.2809893911	-0.235321
C	 1.7607165183	-1.0182539335	 3.0586504041	-0.089114
N	 1.0106637909	-0.0253028277	 2.4737756129	-0.294926
H	 0.6472336629	 0.2818631678	-1.1694896077	 0.124674
H	-0.6095028529	 1.5347428624	-0.9518510327	 0.129049
H	 0.9456491281	 1.6644251733	-0.0824036405	 0.112331
H	 1.1599722043	-3.0152521519	-0.598690242	 0.118488
H	-0.0689028989	-3.6920477697	 0.4672520183	 0.122862
H	-0.4474378117	-2.2783915969	-0.5223363666	 0.123605
H	 2.1148618097	-3.0945117173	 2.4715637975	 0.087524
H	 2.305296147	-0.8395018781	 3.971358159	 0.114314
H	 0.8381211903	 0.8918461938	 2.8464958514	 0.259442
