19
gdb 18729	3.06314	2.12126	1.45176	2.1428	70.09	-0.2432	0.069	0.3122	898.4231	0.168752	-365.054555	-365.047391	-365.046447	-365.085691	28.725	
O	 0.040554672	 1.3929696905	-0.109796866	-0.445975
C	 0.0379798191	-0.027370797	-0.0340468553	 0.150405
C	 0.8539779351	-0.5393466003	 1.1618476181	-0.225453
C	 0.6975192732	-2.0554448394	 1.331010332	-0.208513
C	-0.7488063864	-2.4355429932	 1.6918759189	-0.19938
C	-1.7783390606	-1.6949028124	 0.8473278217	-0.02721
N	-2.0978270019	-0.3088233517	 1.2526191332	-0.346996
C	-1.38627096	-0.5491147857	-0.0182655615	-0.055158
H	-0.4937136298	 1.6952066159	 0.6351393847	 0.282376
H	 0.5180263653	-0.3643791587	-0.9616618925	 0.082724
H	 1.9020334175	-0.2614807754	 1.0138497983	 0.09792
H	 0.5072623563	-0.0281535394	 2.0681238719	 0.103633
H	 0.9808355862	-2.5522919698	 0.392979104	 0.094827
H	 1.3833850268	-2.4300889206	 2.0981497503	 0.094906
H	-0.8904306117	-3.5147035072	 1.5682205622	 0.094173
H	-0.940998162	-2.2101013212	 2.747307383	 0.110075
H	-2.6172058573	-2.2939226251	 0.4992918284	 0.083609
H	-3.0780333224	-0.1094332292	 1.0739127294	 0.231042
H	-1.9394508893	-0.3877470601	-0.9411210107	 0.082996
