15
gdb 25835	3.84568	1.24451	0.94575	2.3303	74.28	-0.2612	-0.0767	0.1845	1169.7922	0.114099	-416.879719	-416.872075	-416.871131	-416.912422	27.736	
C	 0.0162130242	 1.5144328052	 0.0084252619	-0.499069
C	 0.0354210841	-0.0012987198	 0.0022515709	 0.330325
O	 1.076748598	-0.6233112611	-0.0089747405	-0.297197
C	-1.2739291343	-0.7298161216	 0.0099399157	 0.086773
C	-2.5259990974	-0.1144914117	 0.0219087854	-0.040608
N	-3.6689302182	-0.8034237534	 0.0283637035	-0.254183
C	-3.545813509	-2.1315011357	 0.0227081767	 0.088025
N	-2.4121048658	-2.8398189061	 0.011322109	-0.251243
C	-1.2865435626	-2.1294286883	 0.0050336437	-0.008602
H	 1.042968869	 1.880174669	 0.0018579163	 0.150221
H	-0.5153140354	 1.9016419599	-0.8677830806	 0.147109
H	-0.5016433977	 1.8946797082	 0.8957892025	 0.147078
H	-2.6221894872	 0.9687549583	 0.0265242126	 0.120754
H	-4.4715343697	-2.7021550762	 0.0278273632	 0.130664
H	-0.3450134681	-2.6712623967	-0.0042540803	 0.149954
