7
gdb 9	160.28041	8.59323	8.59321	0.7156	28.78	-0.2609	0.0613	0.3222	177.1963	0.05541	-116.609549	-116.60555	-116.604606	-116.633775	12.482	
C	-0.0178210241	 1.4643578827	 0.0100939689	-0.493017
C	 0.0020881587	 0.0095077743	 0.0020119979	 0.286586
C	 0.018340851	-1.1918051787	-0.0045050842	-0.443025
H	 0.9978221	 1.8742534891	 0.0026060629	 0.151087
H	-0.5422043423	 1.8580117813	-0.867211921	 0.151092
H	-0.5253330614	 1.8483435616	 0.9014813825	 0.151097
H	 0.0323165781	-2.2531482303	-0.0102599871	 0.196182
