16
gdb 49280	2.0718	1.69784	0.99273	5.5295	81.43	-0.2164	-0.0328	0.1836	1152.7479	0.124075	-400.733965	-400.725466	-400.724522	-400.767508	31.162	
O	-0.1818978651	 0.017837673	 0.2035366399	-0.302343
C	-0.0739489143	 1.2280361325	 0.1446910936	 0.064829
C	 1.1704703337	 1.9515958546	 0.0857437755	 0.169648
C	 1.2959559974	 3.2858689778	-0.1062128627	-0.077618
N	 2.5876006873	 3.6929605534	-0.2840732903	-0.290222
C	 3.4938843914	 2.5912118501	 0.0824059097	-0.183056
C	 2.5681571247	 1.3261496866	 0.0626306368	-0.275383
C	 2.8669990229	 0.41116708	 1.1573994471	 0.333635
C	 3.1645882144	-0.3136726765	 2.0680843863	-0.457471
H	-0.9767361061	 1.8836810577	 0.1269805398	 0.047697
H	 0.4913483492	 4.0084122536	-0.1796695505	 0.138687
H	 2.851793638	 4.6413202222	-0.0661839449	 0.254345
H	 4.3238457373	 2.513570232	-0.6233430044	 0.127238
H	 3.9027829215	 2.7402424036	 1.0882221417	 0.12753
H	 2.6995571695	 0.7856830769	-0.8846360551	 0.125633
H	 3.3942277482	-0.9748819175	 2.8664345576	 0.196852
