16
gdb 80342	2.19185	1.52912	1.33866	3.7574	69.02	-0.2553	-0.0064	0.249	1039.6834	0.122667	-437.842359	-437.833838	-437.832894	-437.875313	31.636	
C	-0.0970272038	 1.5249212246	-0.1011556472	-0.426621
C	 0.0386502188	 0.0277220534	 0.0653062585	-0.102008
C	 1.3116766095	-0.7463029521	-0.152197735	 0.021221
O	 2.4529907398	 0.0104070456	 0.2913017413	-0.283735
C	 1.9970098656	-0.0655573429	 1.6633562487	-0.067478
C	 1.9762676993	 1.2134153085	 2.374844571	 0.271611
N	 1.941830288	 2.2032334908	 2.9708023584	-0.322227
C	 0.6785356496	-0.7232314536	 1.2200917609	 0.278726
O	 0.0765030019	-1.7269052819	 1.9378324746	-0.446449
H	 0.8494648728	 2.0339042408	 0.0890147055	 0.153165
H	-0.4016435737	 1.7596967266	-1.1260779291	 0.124076
H	-0.8493583995	 1.9387024242	 0.577236346	 0.126495
H	-0.8132311975	-0.5559674144	-0.2841250594	 0.105296
H	 1.4833615331	-1.5289360478	-0.8802879406	 0.124814
H	 2.6093878636	-0.7799314412	 2.2263682441	 0.142376
H	-0.7065503575	-1.3714813107	 2.3732980923	 0.300738
