21
gdb 114340	3.22667	1.12907	1.09064	0.7847	78.58	-0.2439	0.0897	0.3336	1260.714	0.181762	-424.215325	-424.206202	-424.205258	-424.249478	34.009	
C	-0.0317889915	 1.4362902594	 0.1277286298	-0.384989
C	-0.0038095507	-0.0916665681	 0.039145371	-0.210509
C	 0.6456855905	-0.5831886005	-1.2370886771	 0.235367
O	 2.0175127624	-0.2012234165	-1.2952440093	-0.270717
C	 2.6431827243	-1.1618192277	-2.1149911294	 0.031371
C	 3.0888179014	-2.4464345166	-1.4399388734	-0.064083
C	 3.255438887	-2.5752737656	 0.0542865384	-0.411608
C	 1.733127367	-2.3541687632	-2.1166372298	 0.027987
O	 0.6396265229	-2.0052236192	-1.298317614	-0.271658
H	 0.9820955707	 1.8443888894	 0.1048813002	 0.137587
H	-0.588689004	 1.8733765267	-0.7083637423	 0.115635
H	-0.5124215222	 1.7626313723	 1.0541741471	 0.115335
H	 0.5408650255	-0.5195342033	 0.8871608827	 0.113415
H	-1.0200865585	-0.4999076936	 0.0683067576	 0.111013
H	 0.1260917685	-0.1820146598	-2.1273658988	 0.065852
H	 3.1471332074	-0.7630348178	-2.9893470492	 0.098853
H	 3.8163817987	-3.0004369566	-2.0312809887	 0.087143
H	 2.5015964935	-1.9944916239	 0.5860724808	 0.139188
H	 3.1608064836	-3.6205000731	 0.3658979507	 0.118225
H	 4.2418662937	-2.216841383	 0.3658533745	 0.117804
H	 1.4826508297	-2.9437373293	-2.9924726508	 0.098787
