17
gdb 1894	4.38502	2.08807	1.76784	2.5769	59.69	-0.2565	0.0723	0.3287	764.2333	0.149223	-346.861635	-346.854448	-346.853504	-346.893055	27.227	
O	-0.2111992177	 1.4491601606	 0.2381115846	-0.437733
C	-0.0055998443	 0.0514890138	 0.0343072708	 0.126013
C	 0.7004506103	-0.5953557938	 1.2448893235	-0.230421
C	-0.4455185573	-0.8064290684	 2.2410815009	-0.235457
C	-1.573849405	-1.3542232489	 1.3466477177	 0.14827
O	-2.886189464	-1.1349736832	 1.8388359186	-0.438292
C	-1.4014819627	-0.6080843312	 0.0030031725	-0.209612
H	 0.6535129855	 1.8667111847	 0.3091828833	 0.277521
H	 0.5501179564	-0.1125070778	-0.899446371	 0.056037
H	 1.1327182864	-1.5596513708	 0.9472044256	 0.094248
H	 1.5185944442	 0.0228999695	 1.6289907367	 0.085868
H	-0.1926512446	-1.4692824804	 3.0744002636	 0.081031
H	-0.7677211468	 0.1577943391	 2.6481319952	 0.116886
H	-1.4093316405	-2.4329229713	 1.1895698548	 0.058055
H	-2.9808518172	-1.6259536195	 2.6610744841	 0.278636
H	-2.1622441261	 0.1717314775	-0.0760233442	 0.132653
H	-1.5175346865	-1.2790774701	-0.8511165366	 0.096296
