21
gdb 89404	2.78321	1.40217	1.17517	1.6953	77.51	-0.2535	0.0705	0.3239	1139.1051	0.183239	-424.230621	-424.221867	-424.220923	-424.263341	34.885	
C	-0.2319147691	 1.4778951896	 0.1793513028	-0.483613
C	 0.1071570488	 0.0309482769	-0.0882802235	 0.351532
C	-0.8042718325	-1.0604666364	 0.4152590618	-0.349738
C	 0.5928657298	-0.9039096316	 0.9982559429	-0.131299
C	 1.6701038169	-1.8045650419	 0.4330738941	 0.111815
O	 1.5755976569	-3.1752285722	 0.8295764333	-0.450112
C	 1.562238359	-1.6634005924	-1.1226185688	 0.064444
O	 0.7534711521	-2.6981410998	-1.657145122	-0.433688
C	 0.8931865816	-0.2988447904	-1.3588825868	-0.275469
H	 0.6682936545	 2.1039082574	 0.1847612225	 0.114086
H	-0.9047791811	 1.8735618597	-0.5905422823	 0.120207
H	-0.7307773971	 1.5979588975	 1.1463359761	 0.113404
H	-1.6281722186	-0.7578695807	 1.053582121	 0.105174
H	-1.011311869	-1.9015685874	-0.2361467208	 0.131727
H	 0.688870854	-0.5677944647	 2.0255858202	 0.082945
H	 2.6570160295	-1.4596175292	 0.7628361419	 0.083339
H	 0.6728605841	-3.3128816219	 1.1358049594	 0.291343
H	 2.560752155	-1.703010464	-1.581282733	 0.066746
H	 0.9975908599	-3.4867423727	-1.1509113183	 0.279581
H	 0.2717760802	-0.328483554	-2.2597843283	 0.112983
H	 1.6608833452	 0.4687271882	-1.5151718422	 0.094594
