21
gdb 26315	3.82911	0.9581	0.8185	1.6594	86.63	-0.1799	0.0575	0.2374	1465.0208	0.183179	-383.311873	-383.302045	-383.301101	-383.346729	36.91	
C	 0.0335122969	 1.3604300935	-0.4163919848	-0.372123
C	 0.0340871185	-0.0835047673	 0.1228151438	-0.077527
C	 0.6996023726	-0.1436723796	 1.5037501174	-0.3889
C	-1.3580372516	-0.6648585424	 0.122802484	 0.30612
C	-2.119424594	-1.0228095387	 1.2115550711	-0.199468
N	-3.3284454055	-1.5015282573	 0.7515053889	-0.278925
C	-3.3526940595	-1.4611598451	-0.618544178	 0.297876
N	-4.5227520091	-1.8608301726	-1.2999626429	-0.608259
C	-2.1457887981	-0.9511909789	-1.0396331904	-0.327041
H	 1.0535474884	 1.7554238295	-0.4829642815	 0.100338
H	-0.4168487765	 1.4127490898	-1.4119430684	 0.111005
H	-0.5446181683	 2.0165943949	 0.2435991543	 0.112215
H	 0.6473240843	-0.683859629	-0.5653475753	 0.072712
H	 0.1524697415	 0.4682166265	 2.2303630097	 0.11144
H	 0.7360253792	-1.1686715858	 1.8853751671	 0.111296
H	 1.724142776	 0.2389363116	 1.4571851655	 0.10352
H	-1.9056893348	-0.990802024	 2.2668972869	 0.109717
H	-4.1223446919	-1.7469664699	 1.3167051939	 0.254147
H	-4.5233734959	-1.4933938511	-2.2436451896	 0.24516
H	-4.6013861454	-2.8720928149	-1.3679571549	 0.241249
H	-1.8440451666	-0.8204108291	-2.0687944368	 0.07545
