23
gdb 106280	2.65623	1.23361	1.00578	1.2589	86.3	-0.2528	0.0818	0.3345	1306.8761	0.204557	-388.255465	-388.245695	-388.24475	-388.289655	37.676	
C	-0.7033020496	 1.8264775611	-0.3097905774	-0.379874
C	-0.5194647393	 0.3046843694	-0.2916773845	-0.308345
C	-1.8054145009	-0.4584781893	-0.0982897688	 0.347188
C	-2.7614244186	-0.4042401903	 1.13644509	-0.330201
C	-3.3897006567	-1.425965133	 0.1407419724	 0.38597
O	-4.5148560282	-2.2137099584	 0.3094012656	-0.474229
C	-3.0872826544	-0.3994082643	-0.9932645901	-0.344791
C	-1.9715171519	-2.0216614207	-0.0451609488	-0.028368
C	-1.6212274719	-2.9159027835	-1.2246497003	-0.447783
H	 0.2544130248	 2.3364977032	-0.4513218117	 0.111346
H	-1.3695537544	 2.1344251783	-1.1223950406	 0.118276
H	-1.137217202	 2.1841699416	 0.6297254699	 0.11817
H	-0.0516905185	-0.0186110222	-1.2310048126	 0.099209
H	 0.1800634279	 0.027857403	 0.5082004393	 0.097669
H	-2.3734150626	-0.8090732685	 2.0757169332	 0.087512
H	-3.3069596137	 0.5317218809	 1.2903764058	 0.079737
H	-5.2834547915	-1.6376479568	 0.3810055236	 0.280336
H	-3.6533828727	 0.5368903664	-0.9613537444	 0.081236
H	-3.0132192027	-0.7744385695	-2.0148939609	 0.092209
H	-1.5708308637	-2.4560625901	 0.8792755522	 0.059021
H	-1.9730296794	-2.5311303214	-2.1849891428	 0.115908
H	-0.5357802973	-3.0463199518	-1.2978040062	 0.113438
H	-2.0616903528	-3.9091536741	-1.087550793	 0.126367
