18
gdb 64669	3.33819	1.04879	0.96163	2.6828	79.35	-0.2596	0.0259	0.2855	1280.3891	0.145166	-401.925001	-401.91585	-401.914905	-401.959029	34.446	
C	-0.2690041034	 1.7442837071	-0.3024860464	-0.440421
C	-0.0090444616	 0.2579945188	-0.1521380191	 0.400745
C	-1.254662765	-0.5546314502	 0.233500111	-0.401635
C	-1.9076387584	-0.0977340905	 1.4537094092	 0.310401
C	-2.444424454	 0.2838472584	 2.4586045196	-0.436637
C	 0.8657252156	-0.4051820253	-1.2465835348	-0.418969
C	 1.8683563322	-0.576371162	-0.1275136044	 0.434742
N	 3.0180211829	-1.0692008044	-0.0408304876	-0.543129
O	 1.0723884857	 0.0177561411	 0.8277072647	-0.279193
H	 0.6557205054	 2.2700369125	-0.5541772193	 0.128048
H	-0.9985248386	 1.9233929465	-1.0994925898	 0.123091
H	-0.6670020529	 2.158150159	 0.6271435505	 0.148973
H	-1.9614892785	-0.5115022066	-0.6059762767	 0.136573
H	-0.9622824796	-1.6056884031	 0.3433095008	 0.139564
H	-2.9171025359	 0.6132087011	 3.350613878	 0.200898
H	 0.4834825802	-1.3375773448	-1.6667836789	 0.133471
H	 1.1880920132	 0.2532725855	-2.0547181138	 0.135535
H	 3.3796047524	-0.994368583	 0.9117699071	 0.227945
