18
gdb 45821	2.59077	1.77003	1.19929	2.9644	77.97	-0.2145	-0.0073	0.2073	1037.3181	0.150954	-401.989219	-401.981855	-401.980911	-402.021176	29.094	
O	 0.1224564387	-0.0335469647	-0.4949303542	-0.369078
C	 0.0552673018	 1.146609739	-0.2137137808	 0.397046
N	-1.1578810054	 1.7861085666	-0.0655573893	-0.341252
C	-1.314804335	 3.1596789255	 0.1530562594	 0.012063
C	-0.2945127145	 4.018813066	 0.1857633076	-0.117835
C	 1.1242196587	 3.5759537201	 0.0007215751	-0.091278
C	 1.9965654319	 3.6503794828	 1.2952557558	-0.225907
C	 1.7179002954	 2.1437742056	 1.5396623443	-0.222267
C	 1.2644715229	 2.0177949176	 0.0495563067	-0.114691
H	-1.9703714289	 1.2046419841	-0.2031360876	 0.252713
H	-2.3440863884	 3.4717301134	 0.2880371949	 0.114198
H	-0.4956935367	 5.07043303	 0.3588484326	 0.093918
H	 1.5676558912	 4.0643520747	-0.8744591075	 0.08055
H	 3.0478029914	 3.843713733	 1.0639874135	 0.103366
H	 1.6721664645	 4.3508661424	 2.0683651962	 0.099923
H	 2.5521248316	 1.5121866519	 1.8493323644	 0.112028
H	 0.8855583313	 1.9858948966	 2.2303097725	 0.115725
H	 2.0779087297	 1.6493074454	-0.5767646534	 0.100778
