19
gdb 111166	4.00177	1.04193	0.96004	2.4623	76.51	-0.2544	0.0717	0.3261	1265.1189	0.159131	-422.933683	-422.92553	-422.924586	-422.966594	31.545	
O	 0.2964050328	 0.5792333874	 1.0248072511	-0.420689
C	-0.0836921353	 0.3646283716	-0.3299739509	-0.140744
C	-1.4338696633	-0.321801311	-0.3029525253	 0.071761
C	-2.0091052016	-1.0381560404	-1.5710882449	-0.186348
C	-1.0165758755	-2.21877118	-1.3011814783	-0.247959
C	-1.5656177879	-1.8284565892	 0.1106582949	-0.154581
C	-2.9364373377	-1.7583886984	-0.5786931128	 0.557812
C	-4.322453147	-1.6378265429	-0.1592747287	-0.321811
O	-3.8171925098	-2.815133793	-0.8469193823	-0.30711
H	 1.1303234271	 1.058169727	 1.030029217	 0.287248
H	-0.1844262507	 1.321090582	-0.8687852175	 0.086378
H	 0.6732916385	-0.227150657	-0.8616979151	 0.089279
H	-2.1480881894	 0.3351261627	 0.2052916338	 0.074647
H	-2.2726837292	-0.5889616492	-2.5289698862	 0.076899
H	-1.3224547582	-3.1955338993	-1.6797701646	 0.115271
H	 0.0405145216	-2.0372691633	-1.4936205383	 0.095589
H	-1.3176242999	-2.2729138794	 1.0731962917	 0.085717
H	-4.5995806106	-1.8003358438	 0.8811497209	 0.12053
H	-5.0239165638	-1.0377793938	-0.7370503446	 0.118111
