19
gdb 28488	3.05193	1.32416	0.9351	2.9223	88.44	-0.203	-0.0073	0.1957	1265.7877	0.160168	-382.147033	-382.137972	-382.137028	-382.180988	33.973	
C	-0.0534897738	 1.5165771041	-0.023439251	-0.466714
C	 0.0093016714	 0.0108758215	 0.0124052849	 0.312585
N	 0.1181368134	-0.618155371	-1.1657608316	-0.329095
C	 0.1722877822	-1.9454770867	-1.1670244045	-0.061543
C	 0.1311768611	-2.7448860899	-0.0181437927	 0.182589
N	 0.2642887773	-4.1352882385	-0.1027552835	-0.593288
C	 0.0194491726	-2.0943291394	 1.2214919692	 0.276216
C	-0.0182402489	-2.8834760308	 2.5021309531	-0.515198
C	-0.0428898097	-0.7034587603	 1.2097008322	-0.238808
H	 0.8453397812	 1.9299861216	-0.4929066327	 0.133304
H	-0.9076014907	 1.853799618	-0.6201298175	 0.132423
H	-0.144582867	 1.9402701796	 0.9801869899	 0.110812
H	 0.2580647007	-2.4254016222	-2.1425695139	 0.086289
H	 0.081420867	-4.5067383932	-1.0248721738	 0.246334
H	-0.246381945	-4.6536363592	 0.5981164319	 0.246056
H	 0.8515052199	-3.5461643316	 2.5841934004	 0.140936
H	-0.0301938831	-2.2238961731	 3.3728135731	 0.129157
H	-0.911359474	-3.5209485338	 2.5616961867	 0.124576
H	-0.1299483247	-0.1691735853	 2.1513538999	 0.083369
