15
gdb 30543	5.46687	0.99953	0.84627	2.886	84.31	-0.2214	-0.0285	0.1928	1296.7664	0.115034	-413.054655	-413.046664	-413.04572	-413.088125	28.519	
N	 0.0044657906	 1.3467146252	-0.0361913736	-0.491243
C	 0.0602705688	 0.0021801791	 0.0431187481	 0.145992
N	 1.1696512224	-0.6297227948	-0.1094859877	-0.34078
C	 1.1409339115	-2.0167398754	-0.0732834993	 0.425275
N	-0.038376383	-2.6703105457	-0.1154904495	-0.309865
C	 0.0065334557	-3.9976462308	-0.0877116069	 0.011284
C	 1.2000917238	-4.7078718907	-0.0261617231	-0.14604
C	 2.3571850392	-3.9369535392	 0.0095614797	 0.01038
N	 2.3474144062	-2.607241168	-0.013075613	-0.294249
H	 0.8583891752	 1.8635741718	-0.1725223892	 0.271216
H	-0.8403848525	 1.8461327299	 0.171769014	 0.268635
H	-0.8954122726	-0.4936260061	 0.232689307	 0.130048
H	-0.9518287124	-4.5139733135	-0.1211479853	 0.107553
H	 1.2260345211	-5.7900922808	-0.0109856207	 0.101462
H	 3.338073496	-4.4072768711	 0.0578079295	 0.110333
