15
gdb 2018	5.50883	2.16849	2.07586	2.0858	57.13	-0.2433	0.0763	0.3196	679.9535	0.125078	-345.579201	-345.572843	-345.571899	-345.609389	24.234	
O	-0.020376491	 1.3691576751	 0.0358555406	-0.415605
C	-0.0026139677	-0.044341813	-0.0149551234	-0.18616
C	-1.3965910367	-0.5907786188	-0.1067749434	 0.39266
C	-2.533519223	-0.2467321124	-1.1056494311	-0.244605
C	-3.1242163393	-1.0209586471	 0.0924654128	 0.054657
C	-1.954602553	-2.0318357925	 0.0199930941	-0.267421
O	-2.3102787943	-0.1839800358	 1.0073912397	-0.358046
H	-0.6791472887	 1.6074696673	 0.6995189755	 0.295916
H	 0.5731167928	-0.3315205049	-0.9015045759	 0.115718
H	 0.4947174365	-0.4805227518	 0.8664088781	 0.098818
H	-2.7995971337	 0.8086836126	-1.1580908086	 0.112022
H	-2.5204467745	-0.7371549671	-2.0821848833	 0.095874
H	-4.1654374786	-1.187743357	 0.3664351054	 0.098657
H	-1.8904586828	-2.6858620927	-0.8530797744	 0.09801
H	-1.7208177659	-2.5391334219	 0.9566996837	 0.109505
