20
gdb 19786	2.83039	2.47747	1.73222	0.3628	76.56	-0.2404	0.0792	0.3196	849.9883	0.179418	-311.851812	-311.844858	-311.843913	-311.882413	28.896	
C	 0.0035798871	 1.5885666687	 0.0115194254	-0.385455
C	 0.0490912915	 0.0554458367	 0.0022214265	-0.004407
C	 0.7243875966	-0.5658650125	-1.2318872838	-0.039361
C	 2.189270503	-0.3321296264	-1.5117887316	-0.300018
C	 1.7559950907	-1.5737809395	-0.7697490433	-0.037808
C	 1.7581935235	-1.5828917231	 0.7496359065	-0.037809
C	 2.1935980197	-0.3502119515	 1.505268029	-0.300015
C	 0.7279144056	-0.5806477075	 1.2268283346	-0.039363
H	 1.0103134537	 2.0179578604	 0.0126670817	 0.112106
H	-0.5202388974	 1.9712594774	-0.870665394	 0.109585
H	-0.5177159965	 1.9605877084	 0.8997416114	 0.109585
H	-0.9876003621	-0.3068045251	 0.0015215577	 0.072775
H	 0.0873426264	-0.7692639564	-2.0868347223	 0.077474
H	 2.512679874	-0.4607321134	-2.5398602375	 0.10471
H	 2.7289640412	 0.4486560712	-0.9895571422	 0.109407
H	 1.8712326628	-2.5308661244	-1.2658193427	 0.078503
H	 1.8749029162	-2.5458465055	 1.2338621166	 0.078503
H	 2.5199982667	-0.4911363246	 2.5307755278	 0.10471
H	 2.7317444097	 0.4368281521	 0.9908875823	 0.109407
H	 0.0933211775	-0.794300505	 2.0810979379	 0.077473
