15
gdb 26595	2.39766	1.85241	1.05184	3.5509	72.86	-0.2172	-0.0447	0.1725	1070.4297	0.112775	-457.836706	-457.828787	-457.827843	-457.869582	29.432	
C	-0.005429609	 1.5557543682	 0.0267461583	-0.498811
C	-0.0143079028	 0.0534035768	 0.0188891197	 0.183121
C	-1.1629244705	-0.669956855	-0.0823066088	 0.130314
O	-2.3910866956	-0.1196351357	-0.1842229937	-0.426425
C	-1.1624465374	-2.1271831866	-0.0891824868	 0.381654
O	-2.181094263	-2.7813126546	-0.1789745462	-0.389887
O	 0.0502276165	-2.7508250027	 0.0110546989	-0.207783
C	 1.1988751778	-2.0345630498	 0.1122163786	 0.05323
C	 1.2119832725	-0.6909465875	 0.1197214031	-0.225736
H	 0.5935764656	 1.9447482326	-0.8047645476	 0.138538
H	-1.0161306524	 1.9558613264	-0.0575136945	 0.155394
H	 0.4439171751	 1.9364819316	 0.951228917	 0.138541
H	-3.0018583699	-0.8756067635	-0.2398607493	 0.310593
H	 2.0642066686	-2.6787590433	 0.1827960367	 0.1438
H	 2.1589197647	-0.171757357	 0.2027801446	 0.113458
