17
gdb 33568	2.24301	1.53318	1.19223	4.6058	77.89	-0.2494	0.0063	0.2557	1098.9378	0.136472	-380.844352	-380.835531	-380.834587	-380.87914	32.152	
C	 0.4650840831	-1.0484108867	 0.2225143854	-0.473223
C	 0.1673270307	 0.1094623328	 0.09937818	 0.335414
C	-0.1227288279	 1.5506825329	-0.0244394777	-0.05183
C	-0.8101953378	 2.1016823383	 1.2591097982	-0.216754
C	 0.3760834164	 2.3760427565	 2.2088883016	-0.217773
C	 1.6241953016	 2.4492984265	 1.2913569923	-0.165723
N	 1.0807448391	 2.3924174027	-0.0758823605	-0.30584
C	-0.9492956501	 1.7798487949	-1.2256945513	 0.272121
N	-1.6053850584	 1.9586204877	-2.1590535675	-0.340726
H	 0.7139865986	-2.0768759975	 0.3190963078	 0.209903
H	-1.3236883558	 3.0270691869	 0.9910165687	 0.13446
H	-1.5421632889	 1.398768317	 1.6571989705	 0.126581
H	 0.2211992072	 3.3030751223	 2.7640949176	 0.118838
H	 0.4871943279	 1.5721664516	 2.9392919611	 0.11954
H	 2.1882439564	 3.3780182613	 1.4160003649	 0.114959
H	 2.3020383911	 1.6127046121	 1.5105981021	 0.1046
H	 1.7520073668	 2.0404938906	-0.7495964232	 0.235453
