16
gdb 37116	3.25729	1.78204	1.77599	1.4804	71.42	-0.2326	0.0046	0.2371	850.4378	0.125991	-400.658902	-400.652641	-400.651697	-400.68915	26.319	
C	-0.0438379438	 1.5975423782	 0.0340318347	-0.35375
C	 1.4195507476	 2.0206071874	 0.1453367708	-0.056926
C	 2.2784652376	 1.0050241913	-0.0160773253	-0.146
C	 1.5210802913	-0.2624620565	-0.180348472	 0.262503
O	 0.6894495277	-0.6203149468	 0.9417098662	-0.290252
C	 0.0747343362	 0.0939909455	-0.127240517	 0.291818
C	-0.2046467436	-0.8766567302	-1.2637328821	-0.139698
N	 0.6352692842	-0.4334463354	-2.4049562809	-0.326665
C	 1.2493708754	-1.2355416003	-1.3143098569	-0.134268
H	-0.6281641321	 1.8928064174	 0.9127791159	 0.123732
H	-0.522708126	 2.0455907492	-0.844060427	 0.130423
H	 1.7042488728	 3.041969307	 0.3777919897	 0.101302
H	 3.3581318238	 1.0780241114	 0.011553066	 0.105052
H	-1.0674951385	-1.5141179062	-1.4122790162	 0.101665
H	 0.4512928297	-1.0711487422	-3.1818469375	 0.229315
H	 1.7070622178	-2.1965300898	-1.5120248885	 0.10175
