12
gdb 132138	3.05828	1.42795	0.97344	0.9791	64.48	-0.2122	-0.0684	0.1439	1063.5164	0.077348	-518.071091	-518.064081	-518.063137	-518.10277	26.464	
F	 0.1042962154	 0.0424691072	 0.0023839702	-0.025023
C	-0.0334612019	 1.3530803441	 0.0111741089	 0.236684
C	-1.2232667322	 2.0048341328	 0.030854299	 0.13496
F	-2.3743330466	 1.3374955437	 0.0429806259	-0.057228
N	-1.272177337	 3.3490406443	 0.0386550114	-0.253117
C	-0.1761221675	 4.0416417858	 0.0273254118	-0.083946
C	 1.1706563061	 3.4651214638	 0.0059177508	 0.34861
N	 2.3157453701	 4.0388559827	-0.0071834085	-0.555895
N	 1.1232407405	 2.0622491854	-0.0007237864	-0.383421
H	-0.2547792051	 5.1259339048	 0.0340642725	 0.132149
H	 2.2051908334	 5.050688674	-0.0006045828	 0.22208
H	 2.0062181148	 1.5693212113	-0.0155300328	 0.284148
