25
gdb 102655	2.73937	0.88958	0.71986	1.892	89.53	-0.2508	0.0854	0.3362	1677.3193	0.228154	-389.478457	-389.467689	-389.466745	-389.514711	39.901	
C	-0.1192596901	 1.554120613	 0.0587493124	-0.391756
C	 0.0568580444	 0.0340237896	-0.0283818458	-0.178989
C	 0.8190390664	-0.4603784746	-1.2757992548	 0.007713
C	 2.3165133637	-0.1187663995	-1.1757383651	-0.064724
O	 3.0100747181	-0.1727366367	-2.4097304259	-0.430304
C	 0.5577372635	-1.9686625061	-1.4777530687	-0.207984
C	 1.1586519835	-2.607684826	-2.7179214948	-0.005473
C	 2.4937240192	-3.3328084051	-2.6695839453	-0.274508
C	 1.208962773	-4.1071902309	-2.8290310865	-0.288364
H	 0.837638117	 2.0817274424	 0.114784836	 0.121917
H	-0.6563211301	 1.9373121816	-0.8158741505	 0.116574
H	-0.6948258594	 1.828677927	 0.9484395878	 0.112
H	 0.5690039615	-0.3310575328	 0.8732902804	 0.092636
H	-0.9351713403	-0.4342476267	-0.0156337888	 0.091848
H	 0.4321257584	 0.0770634005	-2.1538301464	 0.07438
H	 2.4397500159	 0.909438558	-0.8224667595	 0.103326
H	 2.7861211614	-0.7725938252	-0.4197236698	 0.075855
H	 2.9583277365	-1.079880991	-2.7271657804	 0.291288
H	 0.9120349305	-2.5144066951	-0.5907999336	 0.089246
H	-0.529566253	-2.1223851841	-1.5078733781	 0.097514
H	 0.9452370222	-2.0783259356	-3.6437137869	 0.095252
H	 3.1597475625	-3.2729438925	-3.5247459251	 0.121455
H	 3.0039350253	-3.3947719554	-1.7135602458	 0.122069
H	 0.8634294196	-4.6856962123	-1.9781447147	 0.113962
H	 1.0034362904	-4.5642841325	-3.7904272002	 0.115067
