18
gdb 66951	2.53339	1.97945	1.42509	0.9975	75.41	-0.2208	0.0641	0.2849	954.601	0.147756	-401.844484	-401.837147	-401.836202	-401.875726	30.259	
O	 0.0097067119	 1.3671288982	 0.1605031716	-0.461234
C	 0.0438614033	 0.0028361422	-0.0060534178	 0.299541
C	-0.9936945161	-0.8833862765	 0.7090977624	-0.125447
C	-1.0329852553	-2.1695113021	-0.0924832172	-0.179985
N	 0.4745061525	-2.0415873043	-0.2962566707	-0.216638
C	 0.4844497148	-1.0946725858	 0.9282889952	-0.123608
C	 0.5405276696	-0.8203342047	-1.1628085431	 0.349558
C	 0.3210627064	-0.7943820338	-2.6350241987	-0.346145
C	 1.7064188162	-0.5432461761	-2.0501338266	-0.366804
H	 0.9166876829	 1.6939260149	 0.1505146357	 0.291162
H	-1.7153431572	-0.4409696772	 1.3849738419	 0.0975
H	-1.2417903484	-3.0517727457	 0.5182127251	 0.106929
H	-1.6082847855	-2.2112261526	-1.0233597655	 0.103205
H	 1.1342072005	-1.1704458738	 1.7881694194	 0.102502
H	 0.1577573708	-1.7440609307	-3.1344156162	 0.120562
H	-0.2161679933	 0.0439731665	-3.066059095	 0.119611
H	 2.0993712029	 0.4685051847	-2.0924740265	 0.103258
H	 2.4487547339	-1.3259202832	-2.160048404	 0.126034
