19
gdb 103029	2.34879	1.77605	1.19838	0.987	82.09	-0.2541	0.0408	0.2949	1081.8254	0.157999	-385.78968	-385.781174	-385.78023	-385.822532	33.087	
C	 0.0937659509	 1.3590656267	 0.1110076636	-0.259564
O	-0.1405552226	-0.0138795049	-0.1452849246	-0.298024
C	 0.6091215119	-0.553270056	-1.2075678489	 0.302615
C	 0.2200844673	 0.060201737	-2.4766807025	 0.291415
C	-0.1288290143	 0.6000912441	-3.4934654519	-0.455208
C	 2.1419655439	-0.8467316137	-0.9658000414	-0.109666
C	 1.689456059	-1.9072439799	 0.0825926765	-0.250966
C	 0.7462395932	-2.1074780297	-1.1421678462	-0.097954
C	 2.0111193811	-1.9662617493	-2.0373243503	-0.243782
H	 1.1388430007	 1.5454427657	 0.3970756052	 0.107255
H	-0.1498894089	 1.9808595741	-0.7598404541	 0.123141
H	-0.5562233789	 1.63687587	 0.9435569039	 0.127584
H	-0.4365382606	 1.0651312447	-4.3974700665	 0.191867
H	 2.94014083	-0.1090496529	-0.8757596448	 0.076455
H	 2.3991604495	-2.7168583685	 0.2661927197	 0.090732
H	 1.2347127331	-1.5416292443	 1.0005371771	 0.113603
H	-0.0736802231	-2.8179035057	-1.2497585481	 0.081198
H	 1.8628147241	-1.6582322534	-3.0727434099	 0.113234
H	 2.7354027836	-2.778697884	-1.954668007	 0.096066
