21
gdb 33127	3.03023	1.02542	0.77852	1.2771	87.45	-0.169	0.0612	0.2302	1505.0749	0.182961	-383.305992	-383.296084	-383.295139	-383.340985	36.522	
C	-0.0358568312	 1.527181147	-0.0031860822	-0.400518
C	-0.0385519473	 0.0044000218	-0.0880709951	-0.099726
N	 0.8097325341	-0.458515267	-1.1740980206	-0.397614
C	 0.8602531047	-1.8400967247	-1.410397781	 0.225704
C	 0.4023540188	-2.8574601803	-0.5974790726	-0.171415
N	 0.7310491185	-4.0515494929	-1.2093532326	-0.257983
C	 1.3724664635	-3.8036873659	-2.3910350687	-0.156935
C	 1.4771351031	-2.4406772595	-2.5561159345	 0.186587
C	 2.1155481267	-1.705999037	-3.6938953949	-0.518988
H	 0.9815455705	 1.9060637214	 0.1310606158	 0.127413
H	-0.4460999633	 1.974246559	-0.9165635901	 0.112111
H	-0.6488902996	 1.8696029687	 0.8353820318	 0.116479
H	 0.3547398658	-0.4171910862	 0.8462069325	 0.106588
H	-1.0753978237	-0.3673002528	-0.1827533205	 0.082809
H	 0.6461535765	 0.0636004992	-2.0263684838	 0.221039
H	-0.1104274102	-2.8380658224	 0.3487270705	 0.105581
H	 0.5300017015	-4.961521055	-0.8381953477	 0.254955
H	 1.7111384728	-4.6085103533	-3.024639638	 0.109285
H	 1.39171743	-1.1065789673	-4.2638250138	 0.111102
H	 2.8918742363	-1.0146168685	-3.3435370349	 0.12589
H	 2.5816729626	-2.4002679844	-4.3990699196	 0.117635
