15
gdb 67399	2.81654	1.61508	1.4329	3.9351	64.61	-0.2368	-0.0161	0.2207	934.7738	0.11246	-457.737301	-457.730349	-457.729405	-457.768529	27.766	
O	-0.1151216103	 1.4127234918	 0.0633117668	-0.445288
C	 0.0055141983	 0.0489369924	 0.0124439486	 0.291054
C	-0.0850530605	-1.0091868593	-1.0228123746	 0.009616
O	 1.0525832986	-1.7282843763	-0.5771626014	-0.295445
C	 1.1089783911	-0.8840940446	 0.6224763132	 0.001783
C	 0.4624636417	-1.6513973356	 1.7629797561	-0.335066
C	-0.9981389561	-1.8043056027	 1.2892890394	 0.431536
O	-1.8430188096	-2.491828251	 1.8013122759	-0.324965
C	-1.1638644977	-0.9018171181	 0.1035785145	-0.247844
H	 0.5940716753	 1.8060527726	-0.4588081677	 0.29734
H	-0.3592348336	-1.0498907891	-2.0694819236	 0.129385
H	 2.1090283037	-0.482043703	 0.7882538853	 0.094013
H	 0.9211592407	-2.6244932599	 1.9512423292	 0.141457
H	 0.4795382885	-1.0715144085	 2.6941598507	 0.135053
H	-2.1481188401	-0.5900760788	-0.2226067626	 0.117371
