16
gdb 131539	3.08579	1.57745	1.1292	3.122	70.68	-0.2061	0.0293	0.2355	1035.1768	0.128128	-434.067944	-434.060515	-434.059571	-434.100105	28.508	
O	 0.1207523612	 1.4474301093	 0.0397593256	-0.427912
C	 0.0752844357	 0.0227385423	-0.0149257303	-0.030424
C	 0.6458333503	-0.6725606251	 1.2858058989	-0.198136
N	-0.4741045968	-1.390059732	 1.9743520712	-0.420358
C	-1.5509053582	-1.235072452	 1.1084130975	 0.411272
C	-1.3078684374	-0.5491469038	-0.0581692858	 0.1503
C	-2.5284728512	-0.6217268853	-0.766311077	-0.15979
N	-3.4494759921	-1.2985591114	-0.0852655121	-0.232986
N	-2.8203162029	-1.6805938362	 1.0743509867	-0.327665
H	-0.6637539881	 1.7358799474	 0.5190892893	 0.273557
H	 0.7046365001	-0.237702197	-0.8707197912	 0.096103
H	 1.4163212405	-1.4030913229	 1.021650501	 0.122028
H	 1.0952779128	 0.0809376268	 1.9372768222	 0.118761
H	-0.6355221516	-1.0895553522	 2.928047723	 0.23955
H	-2.7880994061	-0.2127620124	-1.7320951801	 0.114697
H	-3.3269616463	-2.2340015653	 1.742852621	 0.271005
