21
gdb 63481	3.15511	1.05682	0.91214	2.0569	85.16	-0.2529	0.0515	0.3044	1368.6525	0.177435	-387.053072	-387.042159	-387.041215	-387.0891	39.79	
C	 0.0685183439	 1.4493182734	-0.2630705803	-0.454442
C	-0.0136001149	-0.0242713952	 0.0918889619	 0.329754
C	-1.1112765327	-0.7391515759	-0.6780139759	-0.458126
O	 1.2452644555	-0.7223157942	 0.1550718905	-0.322052
C	 0.5209787713	-0.5417178905	 1.3790106966	 0.328274
C	 1.1743161011	 0.3632678839	 2.4069076658	-0.467218
C	-0.0523102885	-1.8232069092	 2.0012457609	-0.423476
C	 0.9604747433	-2.6471512055	 2.6543482649	 0.318554
C	 1.7963991466	-3.3233779145	 3.1913039691	-0.447538
H	 0.8669923353	 1.9680167981	 0.2654695649	 0.126596
H	 0.2510298728	 1.557467636	-1.3377705183	 0.12641
H	-0.8796280741	 1.9497496499	-0.0370779402	 0.119358
H	-1.0308448431	-0.4936355243	-1.7424633986	 0.123999
H	-1.0437639329	-1.8232622539	-0.5887530892	 0.132142
H	-2.102426138	-0.4170074549	-0.3399160595	 0.120115
H	 1.7252278378	 1.1777301028	 1.9385296577	 0.129147
H	 0.4243288056	 0.7880877688	 3.0836521053	 0.11637
H	 1.8790758972	-0.2170489153	 3.0093799441	 0.143081
H	-0.8167954642	-1.5375234844	 2.7368185211	 0.130017
H	-0.5600159858	-2.4218252861	 1.2428025405	 0.132788
H	 2.5340326136	-3.9271349089	 3.6588619385	 0.196246
