16
gdb 42588	3.63154	1.8453	1.60562	2.8202	70.71	-0.2411	-0.0276	0.2135	846.3786	0.12802	-400.729935	-400.724246	-400.723301	-400.759842	24.27	
O	-0.0596887978	-0.0398888487	-0.0267387616	-0.331239
C	-0.0370257622	 1.1612222616	 0.0039221044	 0.457515
C	-1.1787763348	 2.1356313654	 0.0530721054	-0.186069
C	-0.6932166499	 3.3140838916	 0.8379813613	-0.039682
C	 0.827469832	 3.2291038008	 1.082309419	-0.074394
C	 1.3507653766	 4.2804304058	 0.0565209611	-0.226868
C	 0.723726825	 3.2873218588	-0.9462040797	 0.000067
C	 1.1326535988	 2.1264602818	 0.0049076978	-0.183347
N	-0.7615012281	 3.3941978415	-0.6321478578	-0.124568
H	-2.2148638703	 1.8333655318	-0.0234449664	 0.113858
H	-1.352416812	 3.9445984984	 1.4232795193	 0.106762
H	 1.1876548241	 3.1547671537	 2.1065411801	 0.084473
H	 0.9398204659	 5.2926739833	 0.0933088436	 0.109305
H	 2.4409613818	 4.3053126223	-0.0038093285	 0.109124
H	 0.9242490355	 3.2886407825	-2.0158579673	 0.087665
H	 2.1403446254	 1.7286826692	-0.0512258608	 0.097401
