17
gdb 45329	2.51291	1.83448	1.14431	5.6896	75.62	-0.2479	-0.0097	0.2383	1046.2786	0.138203	-418.041313	-418.033958	-418.033013	-418.073377	28.463	
N	-0.0968384697	 1.2239652924	-0.7485812431	-0.495982
C	 0.057457516	 0.093263002	-0.2237047304	 0.361734
C	 1.182837078	-0.852142371	 0.2381546941	-0.381312
C	 0.0476476749	-1.8142316424	 0.6928058782	 0.04582
C	-0.3196504066	-2.0320379676	 2.1700488202	-0.251586
C	-1.8384434887	-1.7479517346	 2.1679299389	-0.322712
C	-2.0118721563	-0.6454158303	 1.1039269945	 0.375211
O	-2.8485846321	 0.2135395581	 1.0585268009	-0.316281
N	-0.9391518151	-0.8242509655	 0.2126156382	-0.106003
H	 0.8045478932	 1.6645803712	-0.9318611058	 0.228634
H	 1.8417915519	-1.2171022781	-0.5522472457	 0.132954
H	 1.7862152718	-0.4443897375	 1.0533820168	 0.133333
H	 0.0080074366	-2.7484014902	 0.1229945118	 0.094521
H	-0.0613711559	-3.0282657222	 2.5351806491	 0.113849
H	 0.1942326885	-1.2979204287	 2.8008350165	 0.114904
H	-2.409536686	-2.6330025235	 1.8621981314	 0.134536
H	-2.2421036505	-1.404640162	 3.1211159644	 0.138379
