16
gdb 83222	2.58532	1.64745	1.33245	4.948	67.57	-0.2548	0.0261	0.2809	979.6185	0.125313	-437.86951	-437.861792	-437.860848	-437.902104	29.021	
O	 0.238982731	 1.3484966431	 0.2201027518	-0.411381
C	 0.0473562863	-0.0077010551	 0.0254139577	 0.111223
C	-0.4619722417	-0.8433264066	 1.1644016047	 0.00967
O	-0.9460747288	-0.0408272431	 2.2188588856	-0.26593
C	-2.3294186383	 0.2355332697	 1.9923241272	-0.094385
C	-2.5510297674	 0.1845416488	 0.4489160653	-0.189288
C	-2.7148843265	 1.5085408856	-0.1607586982	 0.28567
N	-2.92316625	 2.5442684675	-0.6288079034	-0.330658
C	-1.3470942242	-0.6271188413	-0.0428666323	-0.142951
H	 0.084826436	 1.5178485434	 1.1605278446	 0.298891
H	 0.7806577023	-0.4440757937	-0.6469069875	 0.114066
H	-0.0433049484	-1.7974646847	 1.4670793643	 0.108979
H	-2.9477330165	-0.5326139077	 2.4745569574	 0.116657
H	-2.5594581242	 1.2080120794	 2.431726595	 0.14054
H	-3.4680719992	-0.3722942094	 0.2326355512	 0.137625
H	-1.5267512604	-1.4141450558	-0.7644847134	 0.111273
