13
gdb 46170	1.92269	1.65697	1.30578	4.1133	69.81	-0.2914	-0.0125	0.2788	1027.6477	0.087764	-415.565025	-415.556764	-415.555819	-415.598177	29.664	
N	-0.0141525476	 1.1984452228	-0.3042518752	-0.517856
C	 0.0213094946	-0.0083133283	-0.002684612	 0.43429
O	 1.0198712972	-0.8288292977	 0.4581538692	-0.243097
C	 0.1468618716	-1.9895401567	 0.5138226345	-0.102626
C	-1.0539121771	-1.1264129681	-0.0071486567	-0.161054
C	-2.1534014794	-0.9355321157	 0.9227319268	 0.277462
C	-3.0431186463	-0.7850482381	 1.7133762899	-0.399668
C	-1.5155757999	-1.4915979024	-1.3467628564	 0.266193
N	-1.8560995381	-1.8012348866	-2.4057800001	-0.322111
H	 0.8871137308	 1.6613141004	-0.1803536961	 0.247691
H	 0.4817950396	-2.776516051	-0.1629656456	 0.153356
H	 0.0268073121	-2.3545201223	 1.5340695109	 0.149886
H	-3.8384050074	-0.6417207663	 2.4035807009	 0.217533
