21
gdb 122748	7.0006	0.40515	0.39651	1.233	87.13	-0.2492	0.0319	0.281	2772.4333	0.178885	-424.177326	-424.165754	-424.16481	-424.216493	38.532	
C	 0.0280202579	 1.4759920001	-0.1773838689	-0.383407
C	-0.0406820179	-0.0529043386	-0.1997505625	-0.184214
C	-1.4390234172	-0.5757403405	 0.0964995523	-0.017341
O	-1.4120090219	-1.988506922	 0.0550351407	-0.245425
C	-2.6769401536	-2.5612413644	 0.3204507913	-0.209093
C	-2.6014488285	-4.0135343961	 0.2558938847	-0.006597
C	-2.5678644152	-5.214773528	 0.2021508412	 0.180285
C	-2.5066400129	-6.6689352831	 0.1634212617	-0.218426
O	-3.0116275732	-7.1417866154	-1.0795977556	-0.408682
H	 1.0414797114	 1.8261226328	-0.3929254487	 0.118148
H	-0.6410799768	 1.9174213278	-0.9243126015	 0.116588
H	-0.25948723	 1.8752248997	 0.8016369992	 0.115955
H	 0.2721411736	-0.4345097304	-1.1781900632	 0.110295
H	 0.6515542015	-0.4765685724	 0.5366441	 0.108733
H	-1.777902617	-0.2274294717	 1.0886006771	 0.082207
H	-2.1606936055	-0.1843106014	-0.642466584	 0.083652
H	-3.0382560304	-2.2508049025	 1.3168957431	 0.113064
H	-3.4248750705	-2.200490719	-0.4074414276	 0.118004
H	-1.4608493747	-6.9823142432	 0.3156724859	 0.120606
H	-3.0856720202	-7.0752145508	 1.0090927728	 0.116214
H	-2.9417002189	-8.101884101	-1.0700754977	 0.289433
