19
gdb 119439	4.14518	0.87865	0.79961	4.44	76.76	-0.2714	0.0049	0.2763	1479.0724	0.158187	-423.036347	-423.027494	-423.02655	-423.070608	32.711	
C	 0.0035143197	 1.5321950537	 0.0288988997	-0.386308
C	-0.0324105121	 0.009771206	-0.1198824199	-0.163591
C	-1.4365827014	-0.5716255867	 0.1118071147	-0.300277
C	-1.4716831102	-2.059946685	-0.0012269696	 0.485788
C	-1.5979642644	-2.9279552359	-1.1982013097	-0.327234
C	-2.585119894	-3.0843397809	-0.0252601176	-0.347583
C	-1.8330061421	-3.7152580684	 1.1124024252	 0.465317
O	-1.9814511908	-4.5912855414	 1.8999797815	-0.326328
O	-0.7654209495	-2.8271461836	 1.0319501399	-0.299869
H	 1.0129365476	 1.9212304664	-0.1336927973	 0.118454
H	-0.6618078578	 2.018997379	-0.693114333	 0.114306
H	-0.3144126042	 1.8396503199	 1.0312040379	 0.119935
H	 0.3142068094	-0.2768417962	-1.1202974504	 0.101523
H	 0.6614995989	-0.4523513143	 0.5913104586	 0.123862
H	-1.7982426402	-0.2830542896	 1.1064296204	 0.117241
H	-2.1415710946	-0.1538302425	-0.6176737596	 0.108009
H	-2.0403737942	-2.4732254641	-2.0800005013	 0.130523
H	-0.8612206937	-3.7001229976	-1.3942352428	 0.137862
H	-3.6559058864	-2.9924236587	-0.1332902568	 0.128371
