15
gdb 5788	6.1359	1.41996	1.24955	1.9865	67.36	-0.2115	0.0349	0.2465	951.3631	0.122238	-358.851278	-358.844632	-358.843688	-358.882568	24.96	
C	 1.044013022	 1.0972964237	 0.0509805546	-0.225278
N	 0.3616834467	 0.1305874838	-0.8211750468	-0.317115
C	-0.3192057481	 0.5977215605	 0.3984277751	-0.133698
C	-0.5478748461	-0.4133986354	 1.4502845155	 0.318536
C	-0.1350506145	-1.7215235906	 1.4746705288	-0.186854
N	-0.5898541911	-2.2217121951	 2.675252002	-0.232132
C	-1.2523295746	-1.2141909671	 3.309494925	 0.008292
N	-1.2465902906	-0.109359456	 2.600562951	-0.319305
H	 1.9025965801	 0.7001512969	 0.5846399196	 0.11744
H	 1.1446520339	 2.1279071087	-0.2803202562	 0.110652
H	-0.0208347437	 0.6014992838	-1.6360237018	 0.233456
H	-1.1279666609	 1.3175347765	 0.295244891	 0.092021
H	 0.4110884435	-2.3160857887	 0.7634585858	 0.141756
H	-0.4682649628	-3.1625180712	 3.0099061307	 0.265612
H	-1.7162509037	-1.3466828099	 4.2755886156	 0.126617
