22
gdb 117346	4.07798	0.75086	0.6983	1.868	80.76	-0.2136	0.0175	0.2311	1736.0804	0.191442	-441.507025	-441.496087	-441.495143	-441.544243	38.271	
C	-0.6083277673	 0.8026937586	-0.234101024	-0.385114
C	 0.7938044331	 0.2877857067	 0.0545527878	-0.054111
O	 1.3163454199	-0.4717201911	-1.0560939622	-0.244374
C	 0.9830262562	-1.7788865738	-1.1031284915	 0.441865
O	 0.2953975175	-2.3329138275	-0.28464721	-0.352423
C	 1.614641935	-2.4071775558	-2.3391289738	-0.269412
N	 1.3824303736	-3.8295131743	-2.458312938	-0.042183
C	-0.0042796275	-4.1555731015	-2.7633626941	-0.32742
C	 2.2969130437	-4.4403286477	-3.4092647946	-0.310479
H	-0.6241646456	 1.3951177461	-1.1535171195	 0.125065
H	-1.3087232015	-0.0295207058	-0.3357863405	 0.143641
H	-0.9471978656	 1.4381315295	 0.5903993777	 0.121055
H	 1.5023766275	 1.1096265861	 0.1819368953	 0.112911
H	 0.8043409868	-0.3415366368	 0.9474791239	 0.132675
H	 1.2670323459	-1.8240454959	-3.2165828194	 0.104612
H	 2.6921748685	-2.2211715469	-2.270102638	 0.1315
H	-0.3301811253	-3.7598131541	-3.7457300185	 0.082494
H	-0.1236611355	-5.2429816343	-2.7836290126	 0.116876
H	-0.6560706838	-3.7551944984	-1.9862694865	 0.146171
H	 3.3327703876	-4.2463533319	-3.112627257	 0.116497
H	 2.1439196513	-5.5238546009	-3.416446814	 0.120752
H	 2.1642134657	-4.0743621401	-4.4463486703	 0.089403
