16
gdb 69629	3.6142	1.19869	1.15643	1.1533	77.18	-0.2101	0.0247	0.2348	1103.7258	0.122304	-400.619189	-400.611215	-400.610271	-400.651217	31.954	
O	-0.05171178	 1.4144213131	-0.0117644127	-0.455479
C	-0.008175416	 0.0355793209	 0.0049542686	 0.393199
C	-0.2392557047	-0.8425888366	-1.193614683	-0.358483
C	-1.1786010035	-0.9174885711	-0.004618125	-0.171231
C	-0.5493853502	-1.6854408761	 1.2032710199	 0.207628
N	 0.8250001406	-2.1506487867	 0.8164542561	-0.375946
C	 0.6106948082	-0.7482978174	 1.2091337681	-0.203549
C	-1.2652784366	-2.2656795964	 2.2791531878	 0.166387
C	-1.8961826229	-2.7593016021	 3.1784100827	-0.394636
H	 0.7184234942	 1.7351427553	-0.4951979914	 0.288826
H	-0.6720956922	-0.3045298022	-2.0320235272	 0.114428
H	 0.4196981378	-1.6637364973	-1.4452645599	 0.143005
H	-2.2366492992	-0.7059547742	-0.0696885667	 0.105954
H	 1.2017398326	-2.6453317677	 1.6255388171	 0.239045
H	 1.1097074742	-0.2915328249	 2.0544256504	 0.112249
H	-2.4489839622	-3.1899074667	 3.9760237951	 0.188603
