21
gdb 58910	3.1532	1.34091	1.21001	1.1768	81.16	-0.2465	0.0694	0.316	1126.684	0.182513	-387.040436	-387.031989	-387.031045	-387.073237	33.642	
C	 0.0150744085	 1.5386085891	 0.0558759899	-0.412863
C	 0.0125846424	 0.007694811	 0.0428806833	-0.011484
O	 0.7884575165	-0.5245005668	 1.1160014473	-0.429933
C	-1.3856972482	-0.5679293107	 0.0321925464	 0.358379
C	-2.3470694152	-0.4262937136	 1.2554215347	-0.288658
C	-2.985988977	-1.7222269373	 0.7656206237	-0.061531
C	-2.9785709617	-1.6864563258	-0.7712427552	-0.066247
C	-2.3351284975	-0.3678278871	-1.1878026976	-0.285031
C	-1.7500461432	-2.1126261353	-0.0058888195	-0.135982
H	 1.0425270138	 1.9117848818	 0.0674551209	 0.123499
H	-0.4938690115	 1.9449945825	-0.8238552987	 0.122472
H	-0.4988674521	 1.9222201981	 0.9458085112	 0.111339
H	 0.5320939058	-0.3401767387	-0.8593839478	 0.085628
H	 0.4219805834	-0.1811652263	 1.9380192652	 0.276517
H	-1.8256000659	-0.5881890725	 2.2046106206	 0.086147
H	-2.9580550546	 0.4821865554	 1.3213769174	 0.086674
H	-3.6615749084	-2.3756265159	 1.3027028	 0.083704
H	-3.6521546493	-2.3115157658	-1.3435141338	 0.083102
H	-2.9465221452	 0.5425828162	-1.2105556641	 0.08581
H	-1.7951683633	-0.4706688733	-2.1345639628	 0.096017
H	-1.1522907773	-3.0117434453	-0.0159830409	 0.092441
