11
gdb 132684	3.15117	1.31546	0.92805	1.9207	56.44	-0.2591	-0.0471	0.2121	1067.8615	0.064585	-545.948105	-545.94154	-545.940596	-545.979394	24.701	
F	 0.0011430567	 0.0270028655	 0.0036037676	-0.068849
C	-0.0127046256	 1.35904683	 0.0104956405	 0.264575
C	-1.2186467865	 2.0407672384	 0.0303871699	-0.113111
N	-1.2647072566	 3.3776851414	 0.0377618989	-0.297699
C	-0.1429921336	 4.0471142545	 0.0258247403	 0.226701
F	-0.2050153767	 5.3718504677	 0.0332460632	-0.051307
C	 1.1163280799	 3.4384774212	 0.0055057647	 0.146513
F	 2.2166077124	 4.1817380744	-0.0058229873	-0.049319
C	 1.1898863801	 2.0592968681	-0.0024324787	-0.344451
H	-2.1583737319	 1.4988687053	 0.0405071194	 0.138185
H	 2.1450818119	 1.5499403633	-0.0180604285	 0.148762
