22
gdb 59507	2.40768	1.10654	0.83269	2.3506	83.9	-0.2315	-0.0262	0.2054	1440.4433	0.191059	-404.331393	-404.321013	-404.320069	-404.367512	37.528	
C	-2.5392901076	-1.8307571755	 2.6894102284	-0.378246
C	-1.4741046321	-1.6143947328	 1.6108175891	 0.067687
C	-1.6842041985	-0.2898313226	 0.8744246823	-0.399385
N	-0.1619967176	-1.6095888397	 2.267265711	-0.069131
C	 0.4441332644	-2.8936204383	 2.5930513453	-0.265712
C	 1.0623886729	-2.0039511883	 1.5699905709	-0.001391
C	 1.1317411712	-2.4289956543	 0.110227923	-0.309198
C	 1.4532589144	-1.2712913804	-0.8121079757	 0.1701
O	 0.8537013392	-1.0033352512	-1.8210079734	-0.239749
H	-2.4977889162	-1.0265236865	 3.430548578	 0.123881
H	-3.53878826	-1.8441915341	 2.2444472759	 0.111843
H	-2.3868580749	-2.7806745832	 3.2111365084	 0.111815
H	-1.5596446744	-2.4410323732	 0.8836021245	 0.059904
H	-1.5683519421	 0.5487632678	 1.5681889553	 0.121983
H	-0.9712033938	-0.1620697793	 0.0561690769	 0.132151
H	-2.690267435	-0.2487286741	 0.4456988897	 0.113574
H	 0.8752632215	-2.9937711441	 3.5862011432	 0.11498
H	-0.0448212354	-3.794471642	 2.2198212847	 0.106618
H	 1.924542155	-1.4099075742	 1.8762226306	 0.093026
H	 1.9617648456	-3.145519378	 0.0115185296	 0.129231
H	 0.2247321368	-2.9250806886	-0.2402204023	 0.1288
H	 2.3277732665	-0.6593963772	-0.4862451053	 0.077218
