15
gdb 29037	2.53417	1.78095	1.25318	3.2312	77.78	-0.2425	-0.0772	0.1653	1003.1366	0.112999	-416.846352	-416.838576	-416.837631	-416.878727	28.556	
C	-0.5928746854	 1.414701606	 0.0738503619	-0.478363
C	-0.0461728987	 0.0252622082	-0.015392483	 0.245039
N	 0.1405801892	-0.5466626331	-1.1505615063	-0.236075
C	 0.4705086887	-1.8602425052	-1.3425645974	-0.000991
C	 0.129076142	-2.9210700337	-0.5567195265	-0.114809
C	-0.486750615	-2.7876928798	 0.7329263206	-0.002577
N	-0.3932224027	-1.786193851	 1.5439959679	-0.225451
C	 0.359984581	-0.6599366239	 1.2716020168	 0.306048
O	 1.2071128231	-0.2005964623	 2.0017045304	-0.323122
H	 0.1071966171	 2.0464197948	 0.6302593486	 0.167885
H	-0.7634090649	 1.8232549753	-0.9226742868	 0.145714
H	-1.5344320798	 1.4144287489	 0.6357542787	 0.152442
H	 0.9337494549	-2.052314003	-2.307478438	 0.125336
H	 0.2379874948	-3.9214478662	-0.9642779141	 0.112269
H	-1.0980818945	-3.624224845	 1.0784287972	 0.126655
