19
gdb 79808	4.02137	1.40307	1.19688	1.2109	80.11	-0.2275	0.0203	0.2478	1054.4631	0.161891	-385.850806	-385.843828	-385.842884	-385.881707	29.299	
O	 0.0323649433	 1.4679332919	-0.0899523386	-0.443219
C	 0.0389077745	 0.064086962	-0.009172071	 0.133465
C	-0.0234658805	-0.6408794935	 1.3778610751	-0.119763
C	-1.4891676792	-0.1014223712	 1.5131567533	 0.01884
C	-2.4546608523	-0.8268486756	 2.4469554055	-0.31327
C	-2.347302603	-2.3198097723	 2.3017227954	-0.064899
C	-1.4720439043	-2.8103991308	 1.4269795466	-0.086157
C	-0.6285415243	-1.8701133256	 0.6205872145	-0.028864
C	-1.3476324213	-0.6070946039	 0.0337438864	-0.088107
H	 0.9230797446	 1.7821072373	 0.0930688967	 0.28326
H	 0.7508232158	-0.3750285092	-0.7223000804	 0.059269
H	 0.7466425407	-0.6760965144	 2.1519541824	 0.061402
H	-1.5623346079	 0.9817899342	 1.6097209531	 0.081264
H	-2.2575557535	-0.5290837185	 3.4874367155	 0.105847
H	-3.4839331261	-0.4962733733	 2.2440975088	 0.107844
H	-2.9819549943	-2.9589489324	 2.9084707111	 0.085323
H	-1.3477967656	-3.8784439553	 1.2756359387	 0.083514
H	 0.0531355483	-2.3800904974	-0.0661352948	 0.055271
H	-2.1107300348	-0.6006190922	-0.7464425683	 0.068978
