15
gdb 56062	3.86123	0.79979	0.66527	1.9006	71.32	-0.2636	0.0041	0.2677	1588.1107	0.109781	-453.94894	-453.939144	-453.9382	-453.984713	33.761	
N	 0.2711154174	 0.9521919784	-0.3276844271	-0.563693
C	-0.0615746509	-0.1885771665	 0.3217292917	 0.515169
O	 0.3573064841	-0.5535462106	 1.3902523541	-0.378165
O	-0.9620353577	-0.8879185012	-0.459604309	-0.239616
C	-1.3971594902	-2.0921058499	 0.0247265497	 0.135579
N	-2.2210744563	-2.7354765108	-0.6708396641	-0.24264
C	-2.7055192157	-4.0240673415	-0.1857083782	-0.259094
C	-2.2010815758	-4.5050524084	 1.1027994537	 0.27988
C	-1.7735673694	-4.8795283814	 2.1622273087	-0.45641
H	 0.8444222443	 1.619403167	 0.1564152782	 0.277504
H	-0.2093331729	 1.2179376559	-1.1689672704	 0.277111
H	-0.9671073228	-2.3653211201	 0.9875092003	 0.154704
H	-3.8010995998	-3.965588719	-0.1470846051	 0.147319
H	-2.4837073513	-4.7676941734	-0.9622575784	 0.147557
H	-1.4025679129	-5.2206215087	 3.0972588159	 0.204795
