15
gdb 47693	2.39261	1.70224	1.03927	3.2158	65.62	-0.2591	-0.0196	0.2395	1078.7138	0.114631	-491.116628	-491.108941	-491.107997	-491.149687	28.055	
N	-0.0232314985	 0.8837437053	-1.1204669675	-0.54377
C	 0.1163729464	 0.1017152125	-0.1334858177	 0.456724
N	-1.0507741606	-0.4201055123	 0.4417611432	-0.375367
C	-1.4111005169	-1.4976685071	 1.2344702506	 0.384054
O	-2.5840792356	-1.7383256271	 1.4217281841	-0.341986
C	-0.3658590583	-2.3582271032	 1.9334619808	-0.199104
O	 0.9849811502	-2.1942274301	 1.5608616975	-0.215662
C	 1.4445029528	-0.8900198385	 1.6287533965	 0.000608
O	 1.3248596721	-0.2188193401	 0.3805060115	-0.235623
H	 0.8830504905	 1.2446627847	-1.4112455403	 0.233281
H	-1.8675072785	 0.0162980247	 0.0298471521	 0.280594
H	-0.500684057	-2.1869023163	 3.0121099605	 0.140956
H	-0.6272070688	-3.399069139	 1.7337065978	 0.163483
H	 0.93104913	-0.3166750074	 2.4147419847	 0.111436
H	 2.5190244322	-0.9145748061	 1.8139718763	 0.140375
