19
gdb 95422	3.01142	1.16598	0.87054	4.6638	85.46	-0.2282	-0.0364	0.1919	1319.9432	0.160819	-382.093522	-382.08501	-382.084066	-382.126592	32.051	
C	-0.0103155938	 1.4588544224	 0.0541810479	-0.317359
N	-0.0235726022	 0.0068503906	 0.0224307522	-0.075957
C	-1.3598081488	-0.5445393315	-0.1630413147	-0.15082
C	-1.270350416	-2.039648345	-0.481241643	-0.26142
C	-0.3344252162	-2.7381934804	 0.4570041661	-0.116132
C	 0.5275288795	-2.0631192827	 1.2286419631	 0.142884
C	 0.6430935323	-0.5535250542	 1.1865828749	-0.231657
C	 1.3835149504	-2.741670542	 2.1480962837	 0.218001
N	 2.0896910711	-3.2591131962	 2.9069525054	-0.335888
H	 1.0213219088	 1.8176184597	 0.128830273	 0.123957
H	-0.4402129415	 1.8521940013	-0.8719558866	 0.121929
H	-0.5786605327	 1.8824748677	 0.904216697	 0.096765
H	-1.997045345	-0.3934123915	 0.7309631134	 0.085007
H	-1.8408753074	-0.0133398261	-0.990057732	 0.105422
H	-2.2648553571	-2.498944031	-0.425217337	 0.115726
H	-0.9231658561	-2.1851638401	-1.5133488172	 0.131245
H	-0.3663632733	-3.8222971044	 0.5077839718	 0.115863
H	 1.7032051958	-0.2738840679	 1.1554088411	 0.130392
H	 0.2461309122	-0.1433380587	 2.1390850408	 0.10204
