19
gdb 28567	3.61917	1.12346	0.92494	0.0223	85.57	-0.1943	0.0249	0.2192	1310.442	0.159681	-385.920469	-385.912005	-385.91106	-385.954032	31.872	
C	 0.1778282904	 1.4083152741	 0.1749765064	-0.492536
C	-0.0425731627	-0.0522805807	 0.0145188881	 0.346521
C	-1.1268646237	-0.8147169366	-0.2833424018	-0.255071
C	-0.6834320794	-2.1795957734	-0.2895657933	-0.290745
C	 0.644603445	-2.1552760437	 0.0057828808	 0.376353
O	 1.0480622921	-0.8621755508	 0.1937505404	-0.2252
C	 1.6587336925	-3.2049765538	 0.1496843949	-0.104453
C	 3.0930472726	-2.9732190036	-0.2872518628	-0.264974
C	 2.7700122409	-3.0847709687	 1.1755819358	-0.264976
H	 0.918604982	 1.7875742281	-0.5388446275	 0.134203
H	-0.7599292578	 1.9432197548	 0.0084588817	 0.133762
H	 0.5382839622	 1.6560196188	 1.1803849061	 0.134208
H	-2.1242823554	-0.45054627	-0.4760540462	 0.102206
H	-1.2747840345	-3.0599880476	-0.4875146382	 0.101745
H	 1.2580144533	-4.1992752385	-0.0146328926	 0.091852
H	 3.6114642124	-3.7936223655	-0.7709020395	 0.112994
H	 3.333185624	-1.9904314703	-0.6759130081	 0.125557
H	 2.7937830545	-2.1766954889	 1.766707784	 0.125561
H	 3.0641378516	-3.9826222436	 1.7076424118	 0.112993
