22
gdb 99277	4.30482	0.68581	0.62263	2.4333	81.04	-0.248	0.0675	0.3155	1881.0786	0.191803	-441.541214	-441.529749	-441.528805	-441.579715	39.165	
C	-0.0429703276	 1.3538551559	-0.1433347435	-0.328501
N	 0.1063871026	-0.0719378217	 0.0460638547	-0.358833
C	 0.6995631213	-0.6023975078	 1.1492879078	 0.519356
O	 1.157027765	 0.0233409436	 2.0807591021	-0.413935
O	 0.706901884	-1.9578596012	 1.055432852	-0.284162
C	 1.3133943587	-2.6449595416	 2.1611320789	-0.040534
C	 1.1885630496	-4.1458857516	 1.9176172507	 0.013485
C	 1.961468193	-4.9092091342	 3.0009437997	-0.393352
C	-0.2787007222	-4.5892204358	 1.8552028684	-0.380791
H	 0.4754590385	 1.6964038899	-1.0464031918	 0.123864
H	-1.0978988936	 1.6430725573	-0.216018391	 0.123944
H	 0.3979561313	 1.8462673095	 0.7241810777	 0.169889
H	-0.2265021951	-0.7149214198	-0.6519900736	 0.250685
H	 2.3622865425	-2.3400175189	 2.2406466095	 0.112282
H	 0.8130471389	-2.3488780064	 3.0904304346	 0.114803
H	 1.6550829873	-4.3560146281	 0.9456354415	 0.080936
H	 1.5433558611	-4.7134039654	 3.9953806039	 0.117368
H	 1.9088901303	-5.9882973843	 2.827479784	 0.115339
H	 3.0181646396	-4.6228470649	 3.0203663296	 0.11508
H	-0.7778868783	-4.4177240854	 2.8166692658	 0.111617
H	-0.8258350688	-4.0345826488	 1.0889065406	 0.121511
H	-0.3561076181	-5.65698343	 1.6265731285	 0.109947
