14
gdb 128440	4.64956	1.08467	0.8844	1.1662	67.2	-0.2777	-0.0626	0.2151	1237.8511	0.100813	-473.843371	-473.835391	-473.834447	-473.876861	27.558	
C	-0.0601137553	 1.2995450025	 0.0898765458	-0.244053
O	 0.02648282	-0.1276884047	-0.034063073	-0.2245
C	 0.6495017877	-0.5659623014	-1.1342141213	 0.369748
O	 1.1238345384	 0.1360340213	-1.994063711	-0.367751
C	 0.6999228602	-2.0416282174	-1.1925898689	 0.323854
C	 1.2429965753	-2.8533646232	-2.1423002039	-0.298228
C	 0.9791237286	-4.1526079371	-1.6445578977	 0.026843
N	 0.3354741821	-4.1196793023	-0.4996081048	-0.120481
O	 0.1558020506	-2.7803320713	-0.2080847262	-0.196101
H	 0.938442567	 1.7423880792	 0.1156235774	 0.147223
H	-0.613774187	 1.7234296037	-0.7513839074	 0.147148
H	-0.5856957326	 1.4801991235	 1.0267001676	 0.143676
H	 1.7464086871	-2.5536932347	-3.045064392	 0.14905
H	 1.2325145777	-5.110631888	-2.0752223746	 0.143574
