21
gdb 78481	3.11472	1.3128	1.28601	1.5609	81.04	-0.2343	0.0863	0.3206	1125.7577	0.184565	-387.065592	-387.057675	-387.05673	-387.098019	31.226	
C	-0.1504498384	 1.3370568758	 0.1536159705	-0.424304
C	 0.025441239	-0.1613885505	 0.0128544611	-0.00489
C	 0.7472776031	-0.6572721782	-1.2077159755	-0.077655
C	 1.421006084	-0.69881346	 0.1775395465	-0.079374
C	 1.4796609104	-2.2353450648	 0.0921935222	 0.095998
O	 0.7105410933	-3.0254676468	 0.9753620216	-0.267778
C	-0.5630047056	-3.3270949057	 0.4024978765	-0.076336
C	-0.4961542797	-3.0336843521	-1.1209790445	-0.261912
C	 0.7805161976	-2.195506821	-1.2942763346	-0.057647
H	 0.7114787118	 1.876121169	-0.2541307457	 0.115225
H	-1.042133491	 1.6830749127	-0.3803111173	 0.116735
H	-0.2557945919	 1.6251093185	 1.2050366479	 0.120297
H	-0.8096174795	-0.733788591	 0.4062018072	 0.079988
H	 0.9627380503	 0.0052759081	-2.0380698223	 0.080603
H	 2.2156727874	-0.0720429309	 0.5662588762	 0.077414
H	 2.5064502737	-2.6121270024	 0.0985868093	 0.07766
H	-0.7809861218	-4.3804068994	 0.6125963922	 0.098513
H	-1.3451031945	-2.7291746986	 0.8898195555	 0.10004
H	-0.4157188086	-3.9668103736	-1.6851484264	 0.105562
H	-1.3940304313	-2.5150555281	-1.4676406712	 0.106439
H	 1.4052669417	-2.5494233709	-2.1154336693	 0.075422
