11
gdb 1836	6.54357	2.28209	1.7108	2.3661	47.87	-0.266	-0.0096	0.2565	656.8511	0.080444	-376.661483	-376.655485	-376.654541	-376.691657	21.211	
O	-0.0339755999	-0.0256450588	-0.0138119052	-0.344964
C	-0.038771083	 1.1779776141	 0.0032254953	 0.427756
C	-1.2639956627	 2.1051261327	 0.0464086087	-0.289616
N	-0.6644615046	 3.4205796932	-0.0063701679	-0.346926
C	 0.7065870719	 3.3922873981	 0.0180938188	 0.466595
O	 1.4777428423	 4.3177119308	 0.0500464286	-0.385003
N	 1.04888908	 2.0240942968	-0.0095327202	-0.379647
H	-1.9182042253	 1.8922983575	-0.806286721	 0.151793
H	-1.8294236283	 1.9189648257	 0.9674633795	 0.150073
H	-1.153589562	 4.2857779685	 0.1424970094	 0.269775
H	 2.0075201316	 1.7147237315	-0.030777166	 0.280164
