21
gdb 77522	2.31892	1.8098	1.30399	1.2799	77.96	-0.2492	0.0831	0.3323	1069.9384	0.181905	-424.22684	-424.218053	-424.217108	-424.259342	35.152	
C	-0.0026223204	 1.5120851242	 0.0921359591	-0.498868
C	-0.0288102353	 0.0162250169	-0.0229503849	 0.373949
C	 0.8546115265	-0.7011907254	-1.060898279	-0.263169
C	 0.592644283	-2.1659370658	-0.5947763709	-0.263182
C	-0.3630295793	-1.8528611396	 0.571890543	 0.373972
C	-0.7988034681	-2.9405297349	 1.5092349392	-0.498884
O	 0.3170141353	-0.7094620201	 1.218909136	-0.399323
C	-1.3457869832	-0.8122124489	-0.0382049831	 0.107488
O	-2.3327353179	-0.3545479049	 0.8454389806	-0.456911
H	 0.9779863515	 1.8533314868	 0.4388688762	 0.129174
H	-0.1996298592	 1.9704321379	-0.8824457412	 0.123751
H	-0.7642618262	 1.8643896457	 0.7934183799	 0.12332
H	 0.5358756398	-0.5051398767	-2.0889064821	 0.099073
H	 1.9015859658	-0.4053824419	-0.9608423992	 0.107022
H	 0.1267074136	-2.7926094597	-1.3609492007	 0.099076
H	 1.4972043267	-2.6664738425	-0.241365897	 0.107019
H	 0.053536219	-3.3158269578	 2.0845049197	 0.129183
H	-1.5585706323	-2.5758573207	 2.2062150181	 0.123322
H	-1.2267380008	-3.7765538469	 0.946529485	 0.123747
H	-1.8312046296	-1.0294717442	-0.9936186143	 0.075251
H	-1.8744774888	-0.1718313216	 1.6770897858	 0.284988
