21
gdb 63749	3.67022	1.10367	0.99842	2.6241	78.3	-0.2463	0.0591	0.3054	1276.5579	0.180466	-424.20192	-424.192708	-424.191764	-424.236172	34.791	
C	-0.6023231561	 1.5621265213	-0.0041450051	-0.427595
C	-0.0587087163	 0.1419172629	-0.0682165484	 0.424272
C	-1.1204027475	-0.8983642935	 0.2592535833	-0.427596
C	 0.8433522858	-0.178621869	-1.2881433646	-0.412626
C	 1.9749811349	-0.3065880552	-0.2577865634	 0.37497
C	 2.8799600731	-1.5485288445	-0.1428678513	-0.130103
O	 4.0580614162	-0.7620152348	-0.4148323235	-0.275156
C	 3.304229559	 0.4664229783	-0.3585698784	-0.130103
O	 1.0931919163	-0.0049442405	 0.8255189011	-0.343644
H	 0.1835935047	 2.2906369581	-0.2227571063	 0.116414
H	-1.4131400359	 1.6999340992	-0.727749805	 0.1161
H	-0.9954267849	 1.7744053236	 0.9952704654	 0.125506
H	-1.9489500508	-0.8449821916	-0.4553645641	 0.1161
H	-0.7003837615	-1.9076762769	 0.2267414057	 0.116415
H	-1.5225459263	-0.7287077562	 1.2632065394	 0.125504
H	 0.596345303	-1.0987299557	-1.8223431659	 0.109012
H	 0.9612706491	 0.6344154128	-2.0078976345	 0.109012
H	 2.8853222386	-1.9781771513	 0.8675420787	 0.108048
H	 2.7321176856	-2.3449351144	-0.8827273165	 0.098712
H	 3.4548777218	 1.0875946386	-1.2501769813	 0.098712
H	 3.5236513515	 1.0534155288	 0.5430117444	 0.108047
