16
gdb 127977	4.73095	1.08274	0.88692	3.9439	80.89	-0.2143	-0.0608	0.1535	1272.3535	0.12421	-434.048982	-434.040531	-434.039587	-434.082217	31.289	
C	-0.0454705941	 1.4301634351	-0.2683452594	-0.319692
N	-0.013154096	-0.0227359081	-0.2793535423	-0.321363
C	-1.0304414181	-0.6494544856	 0.1556739448	 0.43188
O	-2.1383028425	 0.0289078038	 0.6186538938	-0.301188
N	-3.2703576707	-0.6129197484	 1.1585967282	-0.178195
C	-3.275451469	-1.9062561817	 1.1324700479	 0.386835
N	-4.4331004584	-2.5461437782	 1.5512101204	-0.560175
C	-2.1765464111	-2.720413461	 0.6436033026	-0.142306
C	-1.0862697871	-2.0976063185	 0.1788545617	-0.137256
H	 0.9042728181	 1.8108438091	-0.6510362973	 0.115196
H	-0.8579436501	 1.8256364847	-0.8931852067	 0.125784
H	-0.2033977081	 1.8305638395	 0.7423778393	 0.124765
H	-5.0861664097	-1.9214689946	 2.0063768566	 0.263428
H	-4.2815411866	-3.3957295788	 2.0767792908	 0.256237
H	-2.2705683689	-3.8005543881	 0.6582094896	 0.117264
H	-0.215916808	-2.6166857291	-0.20209965	 0.138784
