21
gdb 95473	2.48706	1.6918	1.25507	1.6891	83.77	-0.2333	0.0181	0.2514	1082.7927	0.184393	-387.082005	-387.073924	-387.07298	-387.114182	32.101	
C	-0.104890192	 1.6109120202	 0.0039642906	-0.393749
C	-0.0037508946	 0.0825837897	 0.0046015229	-0.038281
C	 0.7501276612	-0.4952865255	-1.2248029978	-0.221475
C	 2.2378682629	-0.0715386569	-1.3321080965	-0.23746
C	 2.9255969089	 0.0766223527	 0.0067532917	-0.208222
C	 2.2399832732	-0.1654242744	 1.1120148184	 0.248752
C	 2.1848145003	 0.2236164959	 2.567658713	-0.163946
O	 0.7289356315	 0.2053430261	 2.4920580634	-0.31158
C	 0.7731572306	-0.4717597283	 1.2000731186	 0.099581
H	 0.8808948905	 2.0848282401	-0.0068525829	 0.118284
H	-0.6567154303	 1.9572934072	-0.8760480605	 0.104772
H	-0.6272587283	 1.9599004251	 0.8981957181	 0.130042
H	-1.0201513092	-0.3294529597	-0.0015733711	 0.070953
H	 0.6966288286	-1.5898264508	-1.170372767	 0.101592
H	 0.2281451452	-0.209753214	-2.1442165245	 0.097685
H	 2.7710123105	-0.7826552956	-1.976452768	 0.107382
H	 2.3152992123	 0.8952060559	-1.8498086529	 0.111932
H	 3.9347659828	 0.481529855	 0.024323107	 0.087314
H	 2.5546782662	-0.524438903	 3.2832819599	 0.105013
H	 2.5785021134	 1.2095306251	 2.8409056134	 0.116035
H	 0.5341577663	-1.5371123148	 1.3404215742	 0.075375
