16
gdb 24486	3.91696	1.5894	1.13852	2.8337	84.66	-0.2376	-0.037	0.2006	1017.1855	0.128647	-363.693286	-363.687045	-363.686101	-363.723702	25.572	
C	-0.0468511117	 1.5143097507	 0.010634527	-0.400813
C	 1.4117793857	 1.9065074844	-0.0011077075	-0.084573
C	 2.2043809713	 0.8205413415	-0.0146805959	-0.171917
C	 1.3753520499	-0.3857747576	-0.0134689717	 0.291884
C	 1.6812693171	-1.7419694898	-0.0239091585	-0.27405
C	 0.6100722856	-2.6362784062	-0.0186537508	 0.019058
N	-0.6774771326	-2.2783244174	-0.0043796073	-0.288312
C	-0.9586932573	-0.9666451081	 0.0055855973	-0.095781
C	 0.0237127627	 0.0069782377	 0.0016076738	 0.213671
H	-0.56751005	 1.9067454984	 0.8946551264	 0.136803
H	-0.584253657	 1.9164749663	-0.8588727826	 0.136802
H	 1.7441930637	 2.9369461868	 0.0014321082	 0.108954
H	 3.2872492891	 0.8164324582	-0.0250276514	 0.105836
H	 2.7037171646	-2.1041361166	-0.035668548	 0.095693
H	 0.8032022637	-3.7068728057	-0.026428789	 0.104885
H	-2.0148742547	-0.7035110926	 0.0171139243	 0.10186
