18
gdb 109827	3.44952	0.95057	0.88806	2.0276	71.95	-0.2669	0.0279	0.2948	1333.2521	0.146954	-439.071627	-439.062073	-439.061129	-439.107402	34.168	
O	 0.0348927635	 1.1626228553	-0.9260635021	-0.423933
C	 0.0479737207	 0.1781783801	 0.0921084613	-0.079636
C	-1.3177828486	-0.4658779464	 0.2593105851	-0.091112
C	-1.8671018283	-1.3029851739	-0.8598832272	 0.081675
O	-0.9883251616	-1.497001958	-1.9350793028	-0.430555
C	-1.5449922978	-1.9596940532	 0.4633052638	-0.078137
C	-0.408956387	-2.9730826341	 0.5372796806	-0.368972
C	-0.7362123108	-4.1791824456	-0.2282818026	 0.26191
N	-1.0196306076	-5.0998784424	-0.8674542847	-0.316498
H	-0.1546915081	 0.6952949964	-1.7483135249	 0.297015
H	 0.8222564172	-0.5739578652	-0.1052944189	 0.091708
H	 0.3292323419	 0.6949266361	 1.015293681	 0.112671
H	-2.0418147846	 0.1755594197	 0.7527338778	 0.105116
H	-2.9124808668	-1.1868888062	-1.1395952444	 0.100055
H	-1.1573572397	-2.3637109026	-2.3226890986	 0.309174
H	-2.399145005	-2.22866306	 1.0773381164	 0.108217
H	 0.5201896552	-2.5690114333	 0.1296815904	 0.164961
H	-0.2063114426	-3.2523486664	 1.5765116999	 0.156341
