14
gdb 649	5.60754	4.61367	4.23469	1.6503	52.41	-0.2355	0.0984	0.3339	432.4575	0.122543	-270.407057	-270.402557	-270.401612	-270.434586	18.239	
C	-0.0474546269	 1.5746651348	-0.0462578093	-0.225935
C	 1.4996302981	 1.3560838864	 0.0017706532	-0.061115
C	 1.1965158298	 0.1701883236	 0.9740527482	-0.225935
C	-0.0131943879	 0.0275899405	 0.0175222912	 0.121232
O	 0.5908751498	-0.3452152265	-1.2321390254	-0.280314
C	 1.699649387	 0.5825272493	-1.306909744	-0.070468
H	-0.4361222539	 2.0402147025	 0.8608301336	 0.1
H	-0.4825054525	 2.0284529608	-0.9401471069	 0.098248
H	 2.2063707056	 2.1515802433	 0.2351178148	 0.071203
H	 1.9018217141	-0.6635124205	 1.0154893369	 0.098248
H	 0.9233965637	 0.5052790727	 1.9759148472	 0.1
H	-0.8805044585	-0.6026661737	 0.2073914649	 0.078179
H	 1.6076638994	 1.2068480108	-2.2036556306	 0.098328
H	 2.6474654222	 0.0328830658	-1.3508062337	 0.098328
