12
gdb 20691	3.9616	1.99977	1.33998	3.0992	59.25	-0.2611	-0.0779	0.1831	842.6443	0.083207	-414.662766	-414.655897	-414.654953	-414.694437	24.119	
C	 0.0165059698	 1.5022943554	-0.00060334	-0.463981
C	-0.0595502621	 0.0088025317	-0.0002199175	 0.44004
N	-1.1400967129	-0.630835614	-0.2623605063	-0.346191
C	-1.0897076575	-2.0279648142	-0.2315888523	 0.368684
O	-2.0424941373	-2.7357846594	-0.4608755634	-0.322879
C	 0.2373199364	-2.595945826	 0.1079545324	-0.046023
N	 1.2943518754	-1.9210184498	 0.3637510901	-0.042525
O	 1.1445116548	-0.5296607189	 0.3081518409	-0.245701
H	 0.7606165818	 1.840779663	-0.7279255356	 0.162645
H	-0.9621200883	 1.9087630709	-0.2506892961	 0.168177
H	 0.332682754	 1.8630195997	 0.9828488599	 0.162642
H	 0.352566986	-3.6753690785	 0.1508391378	 0.165112
