22
gdb 77481	2.02332	1.48659	1.40183	2.0421	83.57	-0.2235	0.0702	0.2937	1147.3204	0.191605	-404.311583	-404.301391	-404.300447	-404.345753	38.351	
C	-0.1199259995	 1.4964909507	-0.0790333069	-0.321195
N	 0.1426785395	 0.0691702245	 0.0693720215	-0.157858
C	 1.4224833847	-0.5582620522	-0.1691645574	 0.28085
C	 1.5449544028	-1.6483366254	-1.1938840797	-0.484791
C	 2.5858868845	 0.3256615845	 0.3253279729	-0.351464
C	 1.9661334855	 0.26042861	 1.7606591609	 0.071555
O	 1.6134677893	 1.4478762378	 2.4422456717	-0.433852
C	 0.7788673411	-0.5478733023	 1.2165204012	 0.268396
C	 0.034645818	-1.5920240711	 1.998636249	-0.494809
H	 0.6626589966	 2.160322641	 0.3021225584	 0.1202
H	-0.283864119	 1.7078023154	-1.1412482948	 0.110023
H	-1.0443377087	 1.7334683757	 0.4567221298	 0.12109
H	 1.6946101713	-1.2288194919	-2.1963938038	 0.119722
H	 2.3986526336	-2.3005207116	-0.9787090226	 0.111962
H	 0.6356224613	-2.25439722	-1.219724773	 0.128322
H	 3.5612143031	-0.164205313	 0.2640621485	 0.096446
H	 2.6609919759	 1.3193965005	-0.1255720749	 0.097145
H	 2.5840871182	-0.3825124428	 2.4041476016	 0.070883
H	 2.4194391723	 1.8557948649	 2.7746762977	 0.283379
H	-0.6237808117	-1.1254462402	 2.7408931852	 0.127578
H	-0.5881492207	-2.1966975691	 1.3343969292	 0.126645
H	 0.7233406919	-2.2539614153	 2.5352636857	 0.109775
