16
gdb 73770	2.14889	1.97405	1.11094	5.4306	74.16	-0.2176	-0.0386	0.179	1060.7429	0.123929	-437.900331	-437.891954	-437.89101	-437.933173	31.315	
C	 0.0160700499	 1.5520486064	-0.0429097077	-0.533523
C	-0.0176086205	 0.0579683107	 0.0402019582	 0.092351
C	-1.1099556905	-0.7554372917	 0.0636237064	 0.292565
N	-2.4232883678	-0.4035557508	 0.1088795404	-0.59562
C	-0.7071038836	-2.2055070274	 0.0463587478	-0.070665
O	-0.0124691684	-2.5712706015	-1.1586881441	-0.248536
C	 0.7513686811	-2.2274944944	 0.0162395496	-0.088037
C	 1.2001680636	-0.7608708663	 0.0391782137	 0.352453
O	 2.3529014925	-0.3816503814	 0.0592262001	-0.354139
H	 1.0538254094	 1.8773738325	-0.1536279538	 0.15716
H	-0.553686541	 1.9365418673	-0.89921901	 0.116712
H	-0.3873961024	 2.0277533872	 0.859819441	 0.124663
H	-2.6686645365	 0.5562920244	-0.0772685143	 0.266831
H	-3.1132459766	-1.0821845424	-0.1704307084	 0.265907
H	-1.3256243487	-2.9734997857	 0.5021003082	 0.107765
H	 1.3710470095	-3.0125264068	 0.4369474328	 0.114112
