15
gdb 42510	3.5744	1.14324	0.97917	5.0454	73.2	-0.2698	-0.0579	0.2119	1178.6357	0.1126	-416.797303	-416.789256	-416.788312	-416.830538	29.2	
O	 0.0763247837	 0.0589406884	 0.2542155298	-0.288622
C	 0.0006756734	 1.2455519164	 0.1627478186	 0.347568
C	-1.1923779177	 2.2653330888	 0.0324202422	-0.280318
C	-0.1240054946	 3.3605385841	-0.3313836782	-0.339042
C	 0.9904798934	 2.3676448751	 0.0289195877	 0.243344
C	 2.2058205242	 2.5103506392	 0.8859246357	-0.28411
N	 2.3244357348	 2.279773371	-0.5492537937	-0.345648
C	-2.2228853271	 1.9642017251	-0.9385193381	 0.285831
N	-3.0278729871	 1.7179414328	-1.7311406673	-0.315694
H	-1.6428084917	 2.4313344228	 1.0163196124	 0.155537
H	-0.1326807452	 3.6169361299	-1.3916206871	 0.150689
H	-0.1793515046	 4.2694123143	 0.2677054921	 0.131244
H	 2.4876737122	 3.5061240188	 1.2169279091	 0.140229
H	 2.4292986038	 1.7021466527	 1.5776454123	 0.141413
H	 2.5464048026	 1.3043315506	-0.7439083955	 0.25758
