14
gdb 11330	6.39032	1.34107	1.12404	1.4454	63.25	-0.2505	-0.0071	0.2434	1006.9367	0.1079	-415.912967	-415.905455	-415.904511	-415.945491	26.236	
C	-0.001383351	 1.454587376	 0.0792735945	-0.333528
N	-0.0101968847	 0.0042267022	 0.1667411582	-0.359003
C	-1.0942790299	-0.6186964722	 0.0733491446	 0.52822
N	-1.2137548922	-2.0062414383	 0.1435666266	-0.396106
C	-2.5071157884	-2.448523311	 0.0137946703	 0.409476
O	-2.9136541827	-3.5819969125	 0.0337109511	-0.351957
C	-3.3102288292	-1.1597516084	-0.1622232571	-0.220491
O	-2.3501872661	-0.1023082599	-0.1104163396	-0.251637
H	 0.6476270842	 1.760797798	-0.7488250021	 0.12852
H	-0.9899313053	 1.9036382121	-0.0677270731	 0.125957
H	 0.4366730816	 1.8672364299	 0.9949962501	 0.128519
H	-0.4126027743	-2.602079135	 0.2770558676	 0.284383
H	-3.8302370048	-1.1500982621	-1.1252513689	 0.153824
H	-4.044320507	-1.0422726688	 0.6410409879	 0.153823
