22
gdb 108062	2.64784	1.55125	1.14489	1.5712	85.96	-0.2326	0.092	0.3246	1169.3677	0.19441	-367.173852	-367.165015	-367.164071	-367.207174	34.394	
C	-0.3215909755	 1.4547472348	-0.1667124082	-0.380216
C	 0.1936931985	 0.0257813665	 0.0476874038	-0.298558
C	 0.9367199081	-0.5286040346	-1.1374927189	 0.309086
C	 2.0793888904	 0.1530089976	-1.8824883795	-0.292129
C	 1.673128175	-0.7702848217	-3.0410988134	-0.003613
C	 2.0148714836	-2.1945925317	-2.5806792427	-0.283985
C	 0.8995784038	-1.9723349977	-1.5676505616	 0.286635
C	 0.1243446965	-3.0566794653	-0.8816629459	-0.501041
N	 0.2428547867	-0.9150596049	-2.427812867	-0.240585
H	 0.5000898916	 2.1642024917	-0.3072435343	 0.114772
H	-0.9624394365	 1.5007587961	-1.052148844	 0.135003
H	-0.9033284641	 1.7909831089	 0.6967502022	 0.109675
H	 0.8570275581	-0.0048929342	 0.923166463	 0.099721
H	-0.6527241704	-0.6274974494	 0.2830670492	 0.104162
H	 1.8357023743	 1.1968681423	-2.0965502337	 0.107604
H	 3.1008231723	 0.0844784079	-1.4910017937	 0.088985
H	 1.7784027054	-0.4631867673	-4.0798331642	 0.078263
H	 1.7122134666	-2.9435487863	-3.3186484338	 0.104259
H	 3.0336465896	-2.4049215723	-2.2358737997	 0.089182
H	 0.7238203739	-3.5276295269	-0.0937168393	 0.119494
H	-0.793823208	-2.6762281423	-0.4274794392	 0.130132
H	-0.1593386998	-3.8337986611	-1.599417929	 0.123156
