21
gdb 68242	2.75346	1.80998	1.41771	1.6594	81.1	-0.2413	0.0846	0.3259	1002.2681	0.185112	-387.065143	-387.057884	-387.05694	-387.096299	30.477	
C	-0.0301177278	 1.5086213918	 0.1018900566	-0.514157
C	 0.0498819107	 0.0002185814	 0.0680194907	 0.333428
C	 0.8759686948	-0.7991617591	-1.0022063027	-0.26332
C	 0.7668538523	-1.9483980744	 0.0512846414	-0.050423
C	 0.8522690137	-0.8214841258	 1.1193643994	-0.272347
C	-0.7395736498	-2.2508810461	-0.0497308393	-0.05819
C	-1.5764959402	-2.4354487371	 1.2309820961	-0.111316
O	-1.9504827574	-1.0367345892	 1.2473302878	-0.307639
C	-1.2698207693	-0.7947864016	-0.0083031413	 0.104795
H	 0.9651718685	 1.9631377568	 0.1450083779	 0.111169
H	-0.5387648062	 1.8994446657	-0.7872573844	 0.113208
H	-0.5918077526	 1.8458571948	 0.9801353983	 0.129823
H	 0.4293406063	-0.961870883	-1.9893997973	 0.087517
H	 1.891607403	-0.4110716215	-1.1103852378	 0.097023
H	 1.4562600628	-2.7929178704	 0.055397273	 0.06091
H	 1.8723917167	-0.4457987997	 1.2294071675	 0.091047
H	 0.4008317681	-0.9717645584	 2.1014305353	 0.108484
H	-0.9986529138	-2.8884711524	-0.8959181325	 0.074614
H	-2.4562424851	-3.0794227859	 1.1084218468	 0.098699
H	-1.0397640868	-2.7340601591	 2.1398924822	 0.099811
H	-1.9582385579	-0.4290273466	-0.7780363077	 0.066864
