16
gdb 47138	3.21411	1.2653	0.96932	2.3553	74.02	-0.2469	-0.0336	0.2133	1180.6909	0.125091	-437.883999	-437.876327	-437.875383	-437.916811	28.382	
N	 0.4534749543	 0.8596818284	 1.4862305029	-0.552563
C	 0.2306924649	-0.1027641708	 0.6940774027	 0.352574
O	 1.1859146281	-0.8754025331	 0.0850258761	-0.248531
C	 0.5500550874	-1.8760158745	-0.7194389736	-0.135054
C	-0.9181996663	-1.6312282779	-0.5480457226	-0.219037
C	-1.0942423864	-0.5909186517	 0.2706946773	 0.246779
C	-2.3491751943	 0.0213571041	 0.745234337	-0.037284
C	-3.3005066988	 0.6570325896	-0.1856191801	-0.164062
O	-3.5592679973	-0.634406592	 0.3596050378	-0.233217
H	 1.4556003761	 0.9932745872	 1.6260982767	 0.225316
H	 0.8880163706	-1.7673574181	-1.75874683	 0.131353
H	 0.8627050305	-2.86839819	-0.3681858854	 0.133302
H	-1.6919879039	-2.2268913709	-1.0120145883	 0.134888
H	-2.3216021447	 0.3900147429	 1.7689624595	 0.123336
H	-3.944867587	 1.4579078579	 0.1735215678	 0.125284
H	-3.0641820131	 0.6786243989	-1.2480007978	 0.116917
