20
gdb 12782	3.59906	1.51229	1.29527	1.7134	75.05	-0.2277	0.0833	0.311	1051.094	0.175944	-348.972961	-348.964498	-348.963554	-349.005614	31.961	
C	 0.1611830304	 1.5358519908	 0.1095117234	-0.378415
C	-0.1831022668	 0.0567318452	-0.0972912275	-0.200535
C	 0.6047600471	-0.5626033365	-1.2371431662	 0.114224
O	 2.0536410207	-0.5258956613	-1.0439801716	-0.311907
C	 2.1382946414	-1.9173729093	-1.3590066134	 0.069827
C	 1.4162753618	-2.7349858758	-0.3336078653	-0.351139
C	 0.6397272524	-2.080647598	-1.4649691476	 0.244355
C	-0.2365837603	-2.828111113	-2.4264230007	-0.496757
H	 1.2272886575	 1.6522342032	 0.3233071312	 0.138357
H	-0.0671384935	 2.1253828402	-0.7853984363	 0.112318
H	-0.4048337907	 1.9608738902	 0.9436240798	 0.109851
H	 0.0062293369	-0.5023565994	 0.825499965	 0.099136
H	-1.2517491827	-0.0564431499	-0.3240932865	 0.095784
H	 0.3687963008	-0.0454631377	-2.1796079668	 0.071266
H	 2.9640136672	-2.2504358426	-1.9779292533	 0.099578
H	 1.5165894124	-3.8117267784	-0.4381152776	 0.109286
H	 1.3582570006	-2.3792580516	 0.6910084557	 0.112804
H	-1.2478763814	-2.965087823	-2.0242553174	 0.122062
H	-0.3263541449	-2.2964534724	-3.380726315	 0.119131
H	 0.166896391	-3.8238782107	-2.6364589997	 0.120777
