17
gdb 66007	2.65899	1.35591	1.27947	2.2517	69.96	-0.2402	0.0239	0.2641	1071.7379	0.135146	-455.101345	-455.092607	-455.091663	-455.13487	32.265	
O	 0.0444906025	 1.5226326954	 1.0506526057	-0.474276
C	-0.0539805449	 0.2240374599	 0.5104978877	 0.285444
C	 0.5472686296	 0.0359916354	-0.9216350013	-0.216136
N	 1.4424809526	-0.9764107905	-0.3275224855	-0.332682
C	 1.0840916053	-0.6963864117	 0.9723762059	 0.324664
N	 1.4853202638	-0.9259095549	 2.1509581192	-0.566349
C	-1.4559715285	-0.3054165007	 0.7209122764	 0.039972
C	-2.5430517926	-0.012623623	-0.2161607084	-0.182701
O	-1.932371137	-1.3071803976	-0.1759826931	-0.227903
H	 0.5351197467	 1.4353407809	 1.8783698773	 0.298463
H	-0.1205570834	-0.3664283558	-1.6851226159	 0.126749
H	 1.052053831	 0.9423682842	-1.2677572383	 0.116759
H	 2.3335907392	-1.3013457518	-0.6726515689	 0.244692
H	 2.3360670198	-1.4890970615	 2.1790331838	 0.21402
H	-1.7037047214	-0.4756072449	 1.7688728563	 0.110161
H	-3.5684852704	 0.0315732058	 0.1458640029	 0.122629
H	-2.3401332422	 0.5724209806	-1.1120160738	 0.116495
