19
gdb 81165	2.49446	1.66924	1.25413	2.7363	75.52	-0.2464	-0.034	0.2125	1053.1079	0.158821	-423.012316	-423.004033	-423.003089	-423.045385	31.514	
C	-0.1261576631	 1.5671285322	-0.0352139786	-0.430979
C	 0.0301294209	 0.0559433578	 0.0220440966	-0.004859
C	 1.1348114549	-0.6174288407	-0.8663980213	-0.092809
C	 2.1574631696	-0.2425599362	 0.2513751689	-0.281418
C	 0.9340314914	-0.5807668861	 1.1408458197	 0.365613
O	 0.7472794319	-1.9876491018	 0.9280531941	-0.330353
C	 0.8896487796	-2.0898239802	-0.5126859206	-0.088278
C	 0.8045786775	-0.217836078	 2.5849417278	 0.052613
O	 1.0474222556	 0.8858538583	 3.0082921797	-0.26194
H	 0.82537528	 2.102456391	-0.0161904738	 0.128642
H	-0.6506531756	 1.8510349338	-0.954222626	 0.117752
H	-0.7185740012	 1.9262984942	 0.8115792563	 0.134634
H	-0.9519459934	-0.4263367048	-0.0291438149	 0.080058
H	 1.2825825799	-0.3630506119	-1.915826379	 0.076714
H	 3.0354159867	-0.8792609488	 0.3817262994	 0.105632
H	 2.4342512681	 0.8085376078	 0.271413154	 0.125909
H	-0.027154179	-2.50042676	-0.9504296412	 0.104756
H	 1.7306621537	-2.7486716588	-0.75712759	 0.104531
H	 0.4435391327	-1.0380078378	 3.2424044289	 0.093783
