17
gdb 44346	3.69861	1.52856	1.25771	3.6143	79.72	-0.2301	-0.0527	0.1774	992.1597	0.137164	-384.637211	-384.630399	-384.629455	-384.668366	27.788	
O	 0.0821737149	-0.069376734	 0.2668124203	-0.309378
C	 0.0404496907	 1.1112421408	 0.0295815939	 0.364264
C	-1.2867627597	 1.9270957363	 0.0538094861	-0.339855
C	-1.3149070552	 3.045523974	-0.9964785517	-0.014618
C	-0.590562221	 4.4191198791	-1.1196035347	-0.072973
C	 0.8295920993	 4.5908303123	-0.4791160704	-0.289014
C	 1.0002804262	 3.1357533239	-0.8702536291	 0.208108
C	 1.1810309072	 2.0799116681	-0.0692669331	-0.271274
C	-0.1236566385	 3.1961490385	-1.8842155012	-0.162599
H	-2.1190693212	 1.2373576626	-0.116128818	 0.124054
H	-1.3955172049	 2.3054643925	 1.0783847077	 0.127949
H	-2.2696103893	 3.1080411304	-1.516156194	 0.098609
H	-1.1612094992	 5.2582195703	-1.505413913	 0.096442
H	 1.3839161096	 5.3155673614	-1.0853180495	 0.117936
H	 0.9303005857	 4.838132686	 0.5820761533	 0.10611
H	 1.8302092242	 2.1258708244	 0.8036761973	 0.115152
H	-0.0662657089	 2.9918279833	-2.9451983437	 0.101086
