21
gdb 82442	2.62897	1.67359	1.20211	1.7909	82.39	-0.2389	0.0806	0.3195	1097.7817	0.181743	-387.048267	-387.03946	-387.038516	-387.080897	34.869	
C	-0.0733595875	 1.4504595832	 0.108202585	-0.504284
C	 0.0046133924	-0.0435186369	-0.0137478102	 0.290958
C	-0.6593508842	-0.8897152279	-1.1067684299	-0.286461
C	-0.3940664821	-2.1060753356	-0.1882554523	-0.107353
C	-0.2703806783	-1.1052734899	 1.0354672463	-0.211202
C	 1.1636545709	-0.8769348175	 0.5614931349	 0.267008
C	 2.3417584554	-0.3076444537	 1.295194728	-0.512738
C	 1.1519232197	-2.2231158305	-0.1747772736	 0.10683
O	 1.6643353905	-3.2869027919	 0.6005314242	-0.447808
H	 0.5018951483	 1.9452217763	-0.6836513228	 0.12019
H	-1.1113699058	 1.7925570537	 0.0260357125	 0.118509
H	 0.3151795685	 1.8043194252	 1.0680509901	 0.119047
H	-1.7256918161	-0.6540960541	-1.184363049	 0.094593
H	-0.2159546617	-0.9074832077	-2.1107034795	 0.084714
H	-1.0022049163	-3.0076275229	-0.2337268834	 0.070483
H	-0.7360353366	-1.0358312127	 2.0090186844	 0.084592
H	 2.0492736806	 0.4734689897	 2.0033328865	 0.117608
H	 2.8513855021	-1.0967914115	 1.8583925764	 0.123898
H	 3.0730974179	 0.1270910114	 0.6032409453	 0.120612
H	 1.6567506241	-2.3003041191	-1.144761192	 0.073604
H	 1.2589784481	-3.2259757575	 1.4745827191	 0.277199
