18
gdb 92430	2.64401	1.61859	1.49534	1.8212	71.21	-0.2176	-0.023	0.1946	978.703	0.149469	-439.085792	-439.078181	-439.077237	-439.117764	29.736	
C	-0.182955814	 1.5425422119	-0.0084992632	-0.383622
C	 0.0151968323	 0.0330526697	 0.0356263805	 0.017715
N	 0.8564532029	-0.4526604166	-1.1301306062	-0.321388
C	 1.9815828675	-1.2161453741	-0.5355385139	-0.152352
C	 2.8711664251	-0.2053366507	 0.1841224822	-0.062131
O	 2.0672893317	 0.216715791	 1.3228050192	-0.287909
C	 0.8230806726	-0.4869490639	 1.2427932024	-0.021092
C	 1.2743269544	-1.8448322524	 0.6762591374	 0.433325
O	 1.0674171561	-2.975427689	 1.0116184495	-0.326143
H	 0.773972508	 2.0571086026	 0.1009714985	 0.135469
H	-0.6283491508	 1.8354725583	-0.9636622141	 0.117511
H	-0.8476513892	 1.8696579252	 0.7984931904	 0.111205
H	-0.9625549179	-0.467734225	 0.0319954493	 0.084519
H	 0.304790566	-1.0651221868	-1.7215534175	 0.231151
H	 2.4750656046	-1.8799632596	-1.2415168766	 0.096049
H	 3.8036282627	-0.6518583599	 0.5488724947	 0.113408
H	 3.0944770431	 0.662136406	-0.4453483961	 0.114889
H	 0.3282934448	-0.4767188668	 2.2110608134	 0.099397
