21
gdb 4030	2.56602	1.59161	1.10228	0.5175	77.58	-0.2402	0.0158	0.256	1158.5713	0.186407	-366.237293	-366.227364	-366.22642	-366.271513	36.564	
C	 0.1168288414	 1.5195242811	-0.2572771429	-0.377199
C	-0.0067522661	 0.023302835	 0.0881004417	-0.263423
C	-1.4222111636	-0.5052487714	 0.0085347744	 0.357446
N	-2.036572906	-0.7324266207	-1.0893385061	-0.175986
O	-1.2469652374	-0.4240722785	-2.2150503901	-0.404837
C	-2.1668990914	-0.8208219334	 1.2932280809	-0.04615
C	-2.3669773417	 0.4505313847	 2.1432013461	-0.38752
C	-3.4993461385	-1.5433026156	 1.071145727	-0.380618
H	 1.1619742904	 1.8383817806	-0.1955611808	 0.111543
H	-0.2410209114	 1.7063027366	-1.2713465828	 0.142423
H	-0.464516219	 2.1402035062	 0.4308475757	 0.116912
H	 0.6074496864	-0.5502301573	-0.6141813665	 0.125985
H	 0.3886662881	-0.1598319591	 1.0927098072	 0.094784
H	-1.8301313833	-0.6720307025	-2.9396254896	 0.303353
H	-1.5058190229	-1.489083686	 1.8667771958	 0.083666
H	-3.0201805399	 1.161261067	 1.6257912421	 0.122508
H	-2.8353255713	 0.1958011008	 3.0991608732	 0.114863
H	-1.421628266	 0.9554572508	 2.3609724347	 0.118033
H	-3.3641043062	-2.4632962809	 0.4978111357	 0.120141
H	-3.9522625097	-1.7958596734	 2.0353502842	 0.099509
H	-4.2002876019	-0.9132014038	 0.5165837898	 0.124566
