18
gdb 128105	1.91537	1.8089	0.99512	3.4736	75.71	-0.2231	0.0118	0.2349	1199.6556	0.147525	-435.257317	-435.247805	-435.246861	-435.29179	34.235	
C	-0.3139297973	 1.4101480258	 0.0521121069	-0.32929
N	 0.1228860428	 0.0114848884	 0.0837759453	-0.395848
C	 0.7327850226	-0.4686279921	-1.0970621872	-0.04101
C	 0.1519291177	-1.2080754632	-2.0840642867	 0.433572
C	-1.229123268	-1.7287223326	-2.2450343274	-0.496048
O	 1.0498502692	-1.4878513176	-3.0406176169	-0.231113
N	 2.2957792705	-0.92760436	-2.6939553176	-0.242019
C	 2.0914085718	-0.3313223158	-1.54324423	 0.366983
N	 3.1274586284	 0.2617784536	-0.8350392691	-0.596022
H	 0.4879877034	 2.136980456	-0.1621631665	 0.094032
H	-1.0809306538	 1.5319629675	-0.7179682341	 0.132986
H	-0.7591254053	 1.6678616033	 1.0175756219	 0.122545
H	 0.7213119308	-0.1530848953	 0.8856181913	 0.231231
H	-1.7558586256	-1.2285218397	-3.0652544721	 0.142585
H	-1.2171629201	-2.8005006179	-2.4661074523	 0.146599
H	-1.781070006	-1.559706771	-1.3178116168	 0.149385
H	 3.9666910752	 0.3593908388	-1.3925434847	 0.2598
H	 2.8738456137	 1.1405743919	-0.4041802341	 0.251633
