19
gdb 65643	2.96408	1.31422	1.25623	2.1101	75.3	-0.2387	-0.0275	0.2113	1102.4426	0.157597	-423.005576	-422.996961	-422.996017	-423.039184	32.238	
C	 0.2794125456	 1.464511467	-0.339521887	-0.458892
C	 0.0713115787	-0.012524949	-0.0489874882	 0.315993
O	 0.9108833479	-0.8767207551	-0.8730457813	-0.346437
C	 1.3543253827	-1.6175477531	 0.2911207136	 0.12082
C	 2.709526934	-1.1165166836	 0.8369417972	-0.231915
C	 1.9493136908	-0.1440636536	 1.7951946996	-0.25775
C	 0.5910372813	-0.6611972362	 1.2506068322	-0.11882
C	-1.3736656556	-0.3944666593	-0.3547189455	 0.12852
O	-2.223869383	-0.6120759153	 0.4681670029	-0.253101
H	 1.335110626	 1.7310428714	-0.2493809007	 0.133211
H	-0.039054974	 1.6998408941	-1.3607837685	 0.130893
H	-0.3049542355	 2.0776742497	 0.3542389737	 0.136131
H	 1.1824818519	-2.6912126456	 0.1843744908	 0.081972
H	 3.2852631234	-1.8845873581	 1.3598983648	 0.105408
H	 3.3422610733	-0.6582122701	 0.0738648952	 0.112014
H	 2.0911338973	-0.3874694484	 2.8502812799	 0.11037
H	 2.1481942349	 0.9226414198	 1.6696156006	 0.103695
H	-0.1777685484	-0.963015262	 1.9588293132	 0.09833
H	-1.5714038811	-0.4758866928	-1.4479536225	 0.089558
