18
gdb 62762	3.71711	1.256	1.21751	4.2206	73.15	-0.2464	0.0543	0.3007	1100.6636	0.147109	-439.090784	-439.082433	-439.081489	-439.123519	31.79	
C	 0.2134059438	 1.5254193346	 0.1869297188	-0.468001
C	 0.0866091502	 0.0219923471	 0.0624545845	 0.21505
C	-1.2198148419	-0.4697778943	-0.5354871932	-0.45309
C	 1.2883915669	-0.8474524024	-0.2672275086	 0.016036
O	 2.5733209683	-0.2943512848	-0.0867694361	-0.225488
C	 2.7756464936	-0.0342718463	 1.2324307595	 0.480622
N	 3.8364483702	 0.4829329089	 1.6614302437	-0.576491
O	 1.6724424719	-0.3887456689	 1.9658271878	-0.249555
C	 0.684537052	-0.9116543524	 1.1014480282	 0.006298
H	 1.1729434562	 1.8403946007	 0.5995179468	 0.153968
H	 0.106064829	 1.9948066026	-0.7966440336	 0.126898
H	-0.5759865918	 1.9198504306	 0.8356670066	 0.124521
H	-1.356056298	-0.0714555616	-1.5466324184	 0.129744
H	-1.2536433136	-1.5624284151	-0.6011082916	 0.11901
H	-2.0703503193	-0.1467811571	 0.0744735654	 0.128663
H	 1.2658087791	-1.625738914	-1.0199940736	 0.119921
H	 3.7879562548	 0.5986217227	 2.6705157218	 0.233855
H	 0.1431741485	-1.7460389004	 1.5303674819	 0.118039
