20
gdb 116135	2.5232	1.27338	0.89207	3.037	77.62	-0.2439	0.0201	0.264	1316.7216	0.171822	-440.31138	-440.302401	-440.301457	-440.345239	33.498	
C	-0.0631344944	 1.4578510429	-0.0235988587	-0.450995
C	-0.1319615253	-0.0395349637	 0.0369768377	 0.398961
N	-1.2306769726	-0.669826779	-0.0442960364	-0.337696
C	-1.237069474	-2.1339294008	-0.0528253811	 0.028758
C	-2.3610316053	-2.562441277	-1.0071289152	-0.055542
O	-3.5792903779	-1.9495723124	-0.6565482032	-0.425831
C	 0.1279767036	-2.7175468601	-0.4189857793	-0.246853
C	 1.1958377298	-1.9861410108	 0.3823014119	-0.080673
O	 1.1124085433	-0.5674230797	 0.184661454	-0.258458
H	 0.5921209763	 1.7718870929	-0.8421880107	 0.140866
H	-1.0616203422	 1.8663593793	-0.1724777906	 0.142044
H	 0.3647859772	 1.8546070703	 0.9025363741	 0.140122
H	-1.5258196301	-2.4699481621	 0.9536497648	 0.089397
H	-2.0617890297	-2.3119555388	-2.0400919794	 0.077112
H	-2.5082828287	-3.6473016832	-0.9563874409	 0.097048
H	-3.3432102925	-1.0278189458	-0.477185911	 0.28808
H	 0.1747399863	-3.7911852081	-0.209680178	 0.108744
H	 0.3187278726	-2.5796942936	-1.4902363938	 0.112226
H	 1.0861242771	-2.1935694552	 1.454767542	 0.113652
H	 2.2085523567	-2.2653038351	 0.0819816238	 0.119037
