19
gdb 63964	3.618	1.20071	1.14251	2.3255	77.92	-0.2412	-0.0045	0.2367	1149.906	0.158483	-422.990501	-422.982144	-422.9812	-423.02303	32.787	
C	-0.1526690405	 1.5760577992	 0.0230494065	-0.437123
C	 0.0285733292	 0.0578611178	 0.0236250356	 0.360463
O	-1.2540387947	-0.5860618461	-0.0358779116	-0.472117
C	 0.8269060514	-0.4761065146	-1.2124784591	-0.273153
C	 1.4536112554	-1.7645362275	-0.6670671225	 0.101761
O	 2.9089004198	-2.0010995299	-0.7021169198	-0.308111
C	 2.9489988444	-2.1288584631	 0.7526508802	-0.156648
C	 1.5847428574	-1.4907775407	 0.7951594023	 0.195469
C	 0.8882328492	-0.437635449	 1.2021695541	-0.271956
H	 0.811230881	 2.0937730044	 0.0540597984	 0.118163
H	-0.6910740578	 1.8894067005	-0.8761560687	 0.126689
H	-0.7358082651	 1.8966774885	 0.8945735184	 0.104587
H	-1.6930588538	-0.4444206558	 0.8094835177	 0.272106
H	 0.1743285009	-0.60631917	-2.0789221431	 0.107902
H	 1.6254205991	 0.2278317942	-1.4635890473	 0.113665
H	 0.9300209857	-2.6758543074	-0.9776445853	 0.090874
H	 3.0007329636	-3.1827231118	 1.0566341975	 0.109508
H	 3.7768271882	-1.5735520769	 1.2059166018	 0.120508
H	 0.9621244067	 0.0946563081	 2.1439180149	 0.097415
