18
gdb 12846	3.03369	2.33089	1.80068	1.8262	71.98	-0.2361	0.0152	0.2512	819.8885	0.154752	-347.805049	-347.79796	-347.797015	-347.836044	27.822	
C	-0.2076522374	 1.4994759841	 0.0472339008	-0.458163
C	 0.0272043831	 0.003315482	 0.0068997862	 0.423239
O	-1.1968851673	-0.7275766227	 0.3302652129	-0.327901
C	-0.4972623889	-1.5409403908	 1.2940343256	-0.083483
C	 0.8059047637	-0.7283134413	 1.1415362638	-0.121255
C	 2.010907238	-1.4360230203	 0.4986487742	-0.283731
C	 1.7394249995	-1.2889058025	-0.9835133072	-0.068252
C	 0.6868636533	-0.5152923894	-1.248033298	-0.11705
H	 0.7277361346	 2.0441932356	-0.1181325579	 0.11794
H	-0.9163130656	 1.7929429443	-0.7348693708	 0.125339
H	-0.6264700324	 1.7976585224	 1.0126043653	 0.119512
H	-0.9815873035	-1.5068002338	 2.276813531	 0.09974
H	-0.4183853407	-2.5885193977	 0.9723272147	 0.09495
H	 1.0600379432	-0.1239810184	 2.0131985677	 0.074156
H	 2.9640198986	-0.9679085144	 0.7785224249	 0.107206
H	 2.0883659607	-2.4879734148	 0.8031223889	 0.106513
H	 2.3584117465	-1.7721585469	-1.7326904806	 0.096221
H	 0.3135434345	-0.2721643655	-2.2370187515	 0.095016
