17
gdb 85580	2.75875	1.46581	1.15121	1.7744	71.89	-0.267	0.0055	0.2725	1088.1419	0.136849	-455.164844	-455.156573	-455.155628	-455.197974	30.797	
C	 0.6996474168	 1.3045638539	-0.3324881008	-0.41191
C	-0.0289111782	 0.0537268004	 0.1646024381	 0.025465
O	-0.1838009099	-0.9197777467	-0.8887669219	-0.250839
C	 0.834471507	-1.7816774598	-1.1310941575	 0.389777
N	 0.8553062786	-2.5807488719	-2.1098598503	-0.512906
C	 1.9752499137	-1.7507660289	-0.1445263486	-0.184099
O	 1.5343182859	-1.5258469926	 1.198703167	-0.240819
C	 0.6068548578	-0.5548519827	 1.3994763652	 0.394699
N	 0.2578290205	-0.1603040563	 2.5479920207	-0.517167
H	 1.7410407097	 1.1015854526	-0.5982174556	 0.126643
H	 0.1892075585	 1.6973016654	-1.2155824169	 0.137964
H	 0.687681211	 2.0636196455	 0.4536036881	 0.152454
H	-1.0484361389	 0.3228847645	 0.4411239923	 0.136601
H	 0.0317145907	-2.4453258359	-2.6998851255	 0.226992
H	 2.477172896	-2.7165327974	-0.1551967613	 0.163204
H	 2.7039169557	-0.9803318164	-0.4290680333	 0.136676
H	 0.7986508952	-0.6375634336	 3.2720216402	 0.227265
