14
gdb 133738	2.11945	1.3909	1.01388	2.9599	55.35	-0.2681	0.0103	0.2784	1147.4732	0.09668	-564.371502	-564.362424	-564.36148	-564.406137	31.325	
C	-0.8145898498	 1.1280285703	 0.1682067552	-0.331793
N	 0.4644922249	 0.4507169806	-0.0364380071	-0.274408
C	 0.9686996932	-0.2471940737	 1.1261468256	-0.264115
C	 0.1348958508	-1.396521381	 1.5533579066	 0.27729
N	-0.583464945	-2.2580209047	 1.8298515657	-0.314757
C	 2.4090862386	-0.7165172685	 0.8573423826	 0.302785
F	 3.2170738608	 0.3265879109	 0.6867629573	-0.057866
F	 2.8679671537	-1.4412147271	 1.8810392393	-0.066525
F	 2.4593937516	-1.4728866976	-0.2468749091	-0.07766
H	-0.6913760073	 1.914214457	 0.9204273374	 0.13503
H	-1.109418079	 1.6051962403	-0.7690259178	 0.139136
H	-1.627527577	 0.4615708261	 0.4941634182	 0.131244
H	 0.4097136348	-0.1935076647	-0.8180742526	 0.243859
H	 1.0277351496	 0.4566267522	 1.9644967888	 0.157781
