21
gdb 1695	3.71059	1.85443	1.34447	0.9884	71.29	-0.2475	0.0839	0.3314	977.8871	0.192185	-312.122262	-312.112762	-312.111818	-312.156025	33.936	
C	 0.0290868653	 1.3769341034	 0.1025710835	-0.236545
O	-0.0443396835	-0.0201665713	-0.0411033907	-0.246395
C	 0.6542262211	-0.5497329487	-1.1662928043	 0.159289
C	 2.1544400887	-0.6428694463	-0.8710241465	-0.409607
C	-0.0003593078	-1.906617615	-1.4863887455	 0.037836
C	-1.4939533635	-1.7316452312	-1.7939516731	-0.392991
C	 0.705045367	-2.6379897458	-2.6368958827	-0.400137
H	 1.0491125629	 1.7334101712	 0.310316211	 0.103482
H	-0.3387263374	 1.8991481887	-0.7950537193	 0.101684
H	-0.606406389	 1.6474811872	 0.950098191	 0.124478
H	 0.4986751172	 0.122207657	-2.0297874139	 0.055969
H	 2.3423680761	-1.3703546669	-0.0744570163	 0.120181
H	 2.7186138403	-0.9427740771	-1.7579004969	 0.117772
H	 2.5499026011	 0.3237958301	-0.5462784996	 0.113664
H	 0.0931053546	-2.5164313492	-0.5767978897	 0.078494
H	-1.9781507294	-2.7031229622	-1.9368125634	 0.104367
H	-2.0000882477	-1.2067338726	-0.982098019	 0.128509
H	-1.6361634364	-1.1536062775	-2.7157917053	 0.102848
H	 1.7366800277	-2.9052723968	-2.3933048179	 0.114604
H	 0.1738702778	-3.5636822933	-2.8800336504	 0.112313
H	 0.7215049248	-2.0226267236	-3.5450045111	 0.110183
