16
gdb 33838	4.37684	1.09093	1.00731	2.8161	75.22	-0.2786	0.0105	0.2891	1168.2193	0.124409	-400.712348	-400.704776	-400.703832	-400.744515	29.107	
N	 0.0872059393	-1.1433420776	-0.0711032231	-0.346716
C	 0.0579931194	 0.012771437	-0.0166734584	 0.189538
C	 0.0130054312	 1.4339614876	 0.0661511331	 0.203577
C	 0.2792690662	 2.3359221372	-1.1157066668	-0.318574
C	 1.2047593962	 2.4305651643	 0.0607656168	-0.183575
C	 0.5336938666	 3.1834976015	 1.1848880432	 0.46834
C	 1.143794436	 3.8869538805	 2.3093903109	-0.270197
O	 0.4610223761	 4.5931768389	 1.2594569587	-0.268019
C	-0.6807331944	 2.2330661752	 1.1905718901	-0.387268
H	 0.6922252646	 1.8450796986	-1.989813285	 0.144647
H	-0.4214990806	 3.137824444	-1.3298223658	 0.137507
H	 2.2597111348	 2.200457818	-0.0177971568	 0.12015
H	 0.6450487677	 3.8909086935	 3.2775900687	 0.12441
H	 2.2230824691	 4.0305537449	 2.3401444178	 0.124362
H	-1.6440509685	 2.6749026455	 0.922764385	 0.126259
H	-0.7798599038	 1.6723805408	 2.1216964314	 0.135562
