20
gdb 6277	3.75263	1.02212	0.95991	1.2402	77.59	-0.2633	0.0326	0.2959	1313.3192	0.173607	-348.974538	-348.964435	-348.963491	-349.009739	36.586	
C	-0.0840092446	 1.5617808558	-0.1215007327	-0.391047
C	 0.0272830306	 0.0338032686	-0.0232476616	 0.048645
C	 0.7365133282	-0.5375420388	-1.2584694522	-0.398031
C	 0.7475145218	-0.42051412	 1.2582845843	-0.186842
C	-0.0154452544	-0.1077942898	 2.561773203	-0.075073
O	-1.3365627614	-0.6477364908	 2.5533997923	-0.413732
C	 0.7416296018	-0.5630884272	 3.7321012824	 0.297998
C	 1.3604454566	-0.9852169822	 4.6726967586	-0.439467
H	 0.9082190197	 2.0296060206	-0.1244337277	 0.109728
H	-0.5898389267	 1.8541751867	-1.0474371692	 0.112217
H	-0.6548172728	 1.9891917764	 0.7082568722	 0.119709
H	-0.9882561978	-0.3786221111	 0.0132586504	 0.087802
H	 1.763832056	-0.1605732166	-1.3334013271	 0.11117
H	 0.7866351965	-1.6310910058	-1.222759932	 0.108215
H	 0.2134938875	-0.2558098244	-2.1782816005	 0.11087
H	 0.9153815698	-1.5050651348	 1.2216984667	 0.091305
H	 1.7413172482	 0.0421682509	 1.318921297	 0.103929
H	-0.1646322047	 0.9749365564	 2.6419167282	 0.120368
H	-1.2572551019	-1.6028531526	 2.6567412404	 0.284095
H	 1.9020292177	-1.3385055214	 5.5152547677	 0.198141
