12
gdb 132930	3.12256	1.34809	0.94159	2.9973	61.28	-0.2263	-0.0496	0.1767	1084.3265	0.077315	-521.930065	-521.923142	-521.922197	-521.961628	26.251	
F	 0.0369872743	-0.0173351391	 0.003843725	-0.060828
C	-0.0211062714	 1.3139865114	 0.0108010097	 0.084779
C	-1.2008407795	 1.9788074136	 0.0292776675	-0.070821
N	-1.2092807608	 3.3419750475	 0.0357413751	-0.370443
C	-0.0684543876	 4.1738272288	 0.0247298665	 0.456449
O	-0.1945299433	 5.3850723864	 0.0321431069	-0.39564
C	 1.1765369787	 3.4275616092	 0.0050867338	-0.419563
C	 1.1872118291	 2.071064232	-0.0013875292	 0.253114
F	 2.3233236778	 1.3882253923	-0.0193660577	-0.047704
H	-2.151934899	 1.4635290681	 0.0392704561	 0.159188
H	-2.0872978801	 3.8414985044	 0.0495251801	 0.269713
H	 2.1001317517	 3.9902598053	-0.0042785637	 0.141757
