18
gdb 66803	3.64375	1.8019	1.78773	1.6955	76.56	-0.2357	0.072	0.3076	862.6121	0.149971	-364.743549	-364.73734	-364.736396	-364.773724	26.64	
C	 0.0067609461	 1.5454398853	-0.0552180561	-0.518964
C	-0.0229279536	 0.0467047683	-0.0035542714	 0.351368
C	 0.5023067315	-1.0232820894	-0.9687630693	-0.146173
C	 1.1127926944	-0.8589770005	 0.4030926147	-0.084671
N	 0.6815647837	-1.9226194837	 1.3294310599	-0.119169
C	-0.2463238631	-2.8123420615	 0.6151973455	-0.058506
C	-0.7653708316	-1.7748361663	 1.5582069865	-0.059373
C	-1.2139778011	-0.873380499	 0.3782351993	-0.14598
C	-0.6710294842	-1.9617125912	-0.6130892766	-0.076831
H	 0.9782662963	 1.9090466373	-0.40607253	 0.121066
H	-0.7583560288	 1.9407362178	-0.7329303882	 0.118908
H	-0.1704696332	 1.9778269259	 0.9369378348	 0.122652
H	 1.0451777294	-0.9332165859	-1.9025524157	 0.083932
H	 2.1172385978	-0.4765723402	 0.5312091647	 0.092335
H	-0.138436875	-3.8875852933	 0.7048567565	 0.089679
H	-1.1614883352	-1.8414735623	 2.5655030155	 0.089468
H	-2.2351993404	-0.5058895282	 0.3124741845	 0.06884
H	-1.302289853	-2.3842446333	-1.3901212446	 0.071418
