15
gdb 44011	3.65337	1.53177	1.46928	4.6464	63.75	-0.2549	0.0294	0.2843	918.3081	0.113404	-457.754929	-457.74837	-457.747426	-457.785782	26.314	
O	 0.0034611193	-0.0100786676	 0.092974224	-0.346629
C	-0.0134290372	 1.1724168803	 0.0421405599	 0.465567
O	-1.1615641182	 1.9427321856	 0.0452822646	-0.27266
C	-0.7952230645	 3.2954215061	-0.0022277931	 0.301392
C	-0.034938321	 3.8735133145	 1.1597487679	-0.3907
C	 0.7084436138	 3.3160051372	-0.023035777	 0.301393
C	 0.7151891926	 4.1872301242	-1.2880383438	-0.289237
C	-0.8608036557	 4.1656574647	-1.2662294592	-0.289237
O	 1.1128418454	 1.9738663927	 0.0138083384	-0.27266
H	-0.0473058294	 4.9459614756	 1.3269594868	 0.133711
H	-0.0142029741	 3.2643577729	 2.0556069351	 0.150286
H	 1.2119917849	 5.15604399	-1.1964408354	 0.118462
H	 1.127642414	 3.6546115938	-2.1458174427	 0.135925
H	-1.2821015411	 3.6216284084	-2.1124714442	 0.135925
H	-1.3812078389	 5.1205476017	-1.1605526914	 0.118462
