19
gdb 89924	3.00984	1.34346	1.10902	4.8767	79.93	-0.2312	0.0081	0.2394	1148.5728	0.159989	-382.043422	-382.035031	-382.034087	-382.076647	31.961	
C	 0.2581127113	 1.6804687023	-0.0620899897	-0.418838
C	 0.0368572212	 0.1802677949	-0.0451389688	 0.080728
C	 0.8166239022	-0.7231062476	-1.0399930126	-0.332232
C	 1.1554522962	-1.6271475934	 0.1807846873	 0.224492
C	 2.5480208498	-1.4293714626	 0.8283802587	-0.301475
C	 1.9077303714	-0.2702205231	 1.6337879984	-0.173363
N	 0.531066205	-0.618228002	 1.1386618118	-0.173332
C	 0.6121906447	-2.9758210633	 0.1516831059	 0.235599
N	 0.197079627	-4.0544755013	 0.1129428887	-0.341165
H	 1.3165893222	 1.9532105784	-0.1116331155	 0.119642
H	-0.2317200218	 2.1129221149	-0.940690077	 0.128379
H	-0.1767946325	 2.1473625974	 0.8279140318	 0.133735
H	-1.0386383175	-0.0152256756	-0.1166690369	 0.09928
H	 0.2343516775	-1.1903203619	-1.8354532805	 0.127453
H	 1.7061303268	-0.2586214059	-1.4753086646	 0.11094
H	 2.8597874828	-2.2753533898	 1.442227332	 0.133463
H	 3.3516332052	-1.1762815851	 0.1338276481	 0.116456
H	 1.9760888353	-0.3663543152	 2.7201200355	 0.121661
H	 2.2534060232	 0.7289974688	 1.3581078673	 0.108576
