19
gdb 6954	2.58062	2.23713	1.64458	2.8676	71.79	-0.2541	0.0336	0.2877	889.931	0.166204	-365.097306	-365.089208	-365.088264	-365.129298	30.937	
C	 0.0587353439	 1.5018269518	 0.0076497613	-0.423012
C	-0.0367275441	-0.0386463384	-0.0129681426	 0.19317
C	-1.5027944315	-0.4790038235	-0.0079313586	-0.429426
C	 0.7876107608	-0.6395450174	-1.1738268784	-0.258904
C	 2.1852107358	-0.7800445646	-0.5635007493	-0.097295
O	 1.9656005048	-0.9950157621	 0.8413979947	-0.244882
C	 0.7137494699	-0.5832615773	 1.1991743152	 0.405244
N	 0.2527166563	-0.6354144606	 2.3735407795	-0.546616
H	 1.0975191403	 1.8477998795	-0.0081250476	 0.115469
H	-0.451614113	 1.9245189355	-0.8641778377	 0.113651
H	-0.4108976275	 1.8961481891	 0.912472115	 0.140068
H	-2.0299492058	-0.076074967	-0.8794195545	 0.106803
H	-1.5876992908	-1.5696901985	-0.029601539	 0.115124
H	-1.9999769307	-0.1245819498	 0.8982401988	 0.142865
H	 0.3950184797	-1.6256253397	-1.4421634461	 0.110048
H	 0.7836399157	-0.0175460105	-2.0722340712	 0.106682
H	 2.7532625231	-1.6306619615	-0.9474396279	 0.119163
H	 2.7889151492	 0.126763515	-0.6926226966	 0.112436
H	 0.9471155839	-1.0135761399	 3.0199371349	 0.219411
