20
gdb 81182	2.89166	1.24997	1.05467	2.9671	80.54	-0.2193	-0.026	0.1934	1200.0204	0.169235	-403.079341	-403.070451	-403.069507	-403.113715	33.198	
C	-0.2418663047	 1.6174612741	 0.5280695379	-0.346997
N	-0.1663766325	 0.1587171222	 0.5185953412	-0.120103
C	-1.0729171755	-0.6238446588	 1.4525123881	-0.015778
C	-0.1042597787	-1.8115229417	 1.2349142947	-0.251031
C	 0.7563470496	-0.5480536432	 1.5115277321	 0.331107
C	 2.2631110188	-0.4329174271	 1.4403314018	-0.406524
C	 2.7868352428	 0.9126227519	 1.8983031593	 0.160874
O	 3.4889777259	 1.6370643718	 1.2418928033	-0.238897
C	-0.2222665349	-0.216238298	 2.6873921886	-0.289594
H	 0.6520319664	 2.0158296972	 0.038220043	 0.139161
H	-1.1077930961	 1.9172737424	-0.0713269066	 0.122319
H	-0.3327851052	 2.1038569385	 1.5117049269	 0.096031
H	-2.1575911978	-0.6092922397	 1.3392246789	 0.08403
H	-0.0928124243	-2.5909538981	 1.9987963815	 0.092406
H	-0.0539065632	-2.1958896591	 0.2158208107	 0.106087
H	 2.694131443	-1.1931259021	 2.1080594654	 0.125747
H	 2.6128591319	-0.6263027938	 0.4221593216	 0.133608
H	 2.4740146026	 1.1986240771	 2.9292852987	 0.076955
H	-0.2828867402	 0.8195581241	 3.0202654935	 0.1048
H	-0.221570998	-0.8969975977	 3.5435640094	 0.095799
