16
gdb 26858	2.966	1.47748	0.99419	5.4643	79.24	-0.2033	-0.0584	0.1449	1144.3886	0.124668	-434.093879	-434.085291	-434.084347	-434.127557	31.378	
C	 0.1217781525	 1.4872082115	 0.027370554	-0.4959
C	-0.0492510943	 0.0044982389	 0.0142709095	 0.357046
C	-1.2129639648	-0.6914033527	-0.0129414684	 0.08994
N	-2.5113570298	-0.1409122963	 0.0449803506	-0.600261
C	-1.077207192	-2.1251604509	-0.0069106621	 0.020428
N	 0.0426859148	-2.7657312072	 0.006247417	-0.309583
C	 1.224173405	-2.0319729976	 0.041668194	 0.417121
N	 2.3989726573	-2.5073334217	 0.0547242252	-0.532639
O	 1.1394645901	-0.6440777686	 0.0709648021	-0.233782
H	 1.0128134988	 1.7572823348	-0.5453651685	 0.160817
H	-0.7424856636	 1.9947609289	-0.4087373992	 0.126252
H	 0.2591985178	 1.8638984408	 1.0480831838	 0.157049
H	-2.5244706577	 0.8687804586	-0.0036476037	 0.243924
H	-3.1255055125	-0.5134785938	-0.6703110779	 0.249749
H	-1.9918538017	-2.7219294956	-0.0148348816	 0.11916
H	 2.3250491501	-3.522913809	 0.0370683052	 0.23068
