21
gdb 106664	2.61526	1.18291	1.01483	1.3884	79.02	-0.2466	0.0693	0.3159	1269.6977	0.181126	-424.194226	-424.18454	-424.183595	-424.228508	36.659	
C	 0.046723151	 1.5275370548	 0.0020314693	-0.492506
C	-0.0084357117	 0.029011274	 0.096799873	 0.242562
C	 1.160031831	-0.8682033403	-0.2169612297	-0.387739
C	 0.5226419451	-0.9602675145	 1.1516233391	 0.284664
C	 1.2988186149	-0.7307167129	 2.4134526736	-0.174576
O	 2.0106907024	-1.8869722284	 2.8401579411	-0.413738
C	-0.7515338611	-1.8078948761	 1.0273761171	-0.329056
C	-1.3025529581	-0.8034660929	-0.0369349105	 0.107692
O	-2.4920504073	-0.1365274499	 0.3218391991	-0.434066
H	 0.9862263716	 1.9201854144	 0.4035230359	 0.117667
H	-0.0314920527	 1.8558473156	-1.0412044828	 0.126455
H	-0.7786007042	 1.9925525455	 0.5506060926	 0.114466
H	 1.0589751281	-1.6865884771	-0.928078934	 0.105235
H	 2.1229201203	-0.3648389928	-0.2569973067	 0.108409
H	 1.9761078662	 0.1294547594	 2.2808369052	 0.083409
H	 0.6254395487	-0.4868896063	 3.2435861483	 0.102156
H	 2.5486228864	-2.1785399809	 2.0961982611	 0.281455
H	-0.6220498977	-2.8517355975	 0.7238855198	 0.09851
H	-1.3732750814	-1.785551641	 1.9282914263	 0.098057
H	-1.4919628333	-1.2096254699	-1.0361536695	 0.083814
H	-2.4026802782	 0.1694312669	 1.2313349316	 0.277131
