15
gdb 11448	3.46293	1.79088	1.5918	2.1609	58.17	-0.262	0.0181	0.2801	847.672	0.119415	-436.942133	-436.93473	-436.933786	-436.974194	26.845	
O	-0.5048475636	 1.4939062677	 0.189130238	-0.415235
C	-0.1476345273	 0.1295265666	 0.104379872	-0.100643
C	-1.3723239445	-0.7739705658	-0.0425914235	 0.205719
O	-2.2262236611	-0.7216432773	 1.0739312767	-0.260051
C	-3.2812286724	 0.1824460861	 0.7804975426	-0.160228
C	-3.2797336156	 0.2751275874	-0.7283294233	 0.372375
N	-4.1571662738	 0.8209492094	-1.4471037064	-0.532199
O	-2.1426957716	-0.343069588	-1.1724268726	-0.253282
H	-0.8078976773	 1.7691965906	-0.6825282496	 0.298126
H	 0.5462634965	-0.0692237376	-0.7263038821	 0.101004
H	 0.3573500838	-0.1299134465	 1.03975921	 0.129642
H	-1.070391401	-1.8158877413	-0.2055899134	 0.102017
H	-4.2232860959	-0.2215960085	 1.1586691704	 0.14223
H	-3.1036561213	 1.1692942568	 1.2234712726	 0.143248
H	-3.9166483948	 0.7571830604	-2.4370861614	 0.227276
