19
gdb 105276	2.34062	1.10252	0.89765	2.9883	85.08	-0.246	-0.0296	0.2164	1366.6424	0.155975	-385.859238	-385.849362	-385.848417	-385.894169	36.112	
C	-0.3376200643	 1.559755003	 0.1299861822	-0.382858
C	 0.1523603193	 0.1228884957	-0.0780489189	-0.256372
C	 0.7904899608	-0.4689492016	 1.1800167085	 0.122553
C	-0.0833274879	-1.1368052906	 2.2079803007	-0.322588
C	 0.8565245158	-2.0044853104	 1.3952629609	-0.146975
C	 0.3105029777	-2.9530789467	 0.3962145846	 0.156514
O	 0.8487097428	-3.9884024638	 0.0895602762	-0.263537
C	 1.9499488506	 0.2398901155	 1.6587337052	 0.292956
C	 2.921863061	 0.838012833	 2.0392235968	-0.44783
H	 0.4866612943	 2.2173064234	 0.4193719564	 0.136493
H	-0.7797227696	 1.9517344577	-0.7905485393	 0.117018
H	-1.0975264814	 1.6080488954	 0.9169253076	 0.117838
H	-0.6881469015	-0.5054558621	-0.3871606422	 0.100968
H	 0.8838466083	 0.0926967595	-0.8934190324	 0.117619
H	 0.1449747283	-1.003765239	 3.2581975283	 0.13859
H	-1.1417167419	-1.205386693	 1.9743766876	 0.126729
H	 1.7566550081	-2.3610191603	 1.8820178665	 0.12257
H	-0.6650856302	-2.66246419	-0.0544544152	 0.07099
H	 3.7799897598	 1.3631850142	 2.3791855065	 0.199323
