18
gdb 47394	2.72476	1.64294	1.26324	2.66	72.57	-0.2457	0.011	0.2567	1033.8529	0.149321	-439.087413	-439.079608	-439.078664	-439.120141	29.493	
N	 0.0903860055	 1.2602428163	 0.524981512	-0.550708
C	 0.0657179093	 0.0133865308	 0.3313430449	 0.393501
O	 1.1537424073	-0.7794048908	 0.1245439218	-0.246908
C	 0.7463472169	-2.1556066207	-0.0313631126	-0.091904
C	-0.6544811295	-2.2284627227	 0.5867693927	-0.303704
C	-1.1967735787	-0.8373746554	 0.2808839384	 0.365825
C	-2.4611114115	-0.2620862216	 0.9376308867	-0.358843
C	-2.9678761736	-0.0907349913	-0.5073698489	-0.067015
O	-1.8002912454	-0.7607394828	-1.0407626915	-0.327541
H	 1.0456337517	 1.6194538184	 0.4811314962	 0.223808
H	 0.731430246	-2.3996926451	-1.099081367	 0.129556
H	 1.4907026653	-2.7791564476	 0.467754665	 0.1213
H	-1.2777087659	-3.0158548285	 0.1604473257	 0.121033
H	-0.5873392588	-2.3694146896	 1.6712377136	 0.118231
H	-3.0189307836	-0.9820688441	 1.5390683537	 0.10815
H	-2.2957153893	 0.6570723985	 1.498130117	 0.142083
H	-3.8897852897	-0.6188748656	-0.7738600089	 0.103312
H	-3.0282598759	 0.9471671418	-0.851344759	 0.119826
