19
gdb 120237	2.94136	1.1289	0.92284	2.2975	77.1	-0.2225	-0.0155	0.207	1326.3262	0.157911	-423.008145	-422.999183	-422.998239	-423.042653	32.635	
C	 0.0391119627	 1.509650572	 0.0833206496	-0.386322
C	-0.1278869957	 0.0084100689	 0.2358494379	-0.047136
O	 0.9771066523	-0.4879459749	 0.986263639	-0.260176
C	 0.92744393	-1.8683106032	 1.2024956622	 0.011557
C	 2.0816097625	-2.4406047	 2.023097972	-0.084953
C	 2.0519951114	-1.8679971753	 3.3930189021	-0.275189
C	 1.0910960361	-3.0121985386	 3.0794130173	-0.17836
C	-0.0476837256	-2.4643667539	 2.2791151208	 0.391295
O	-1.2419715198	-2.5666235287	 2.3326513463	-0.325339
H	 0.9787548607	 1.7427342859	-0.4256566962	 0.125385
H	-0.7866396178	 1.9253654061	-0.5016001948	 0.117816
H	 0.0494544881	 1.9967882274	 1.0625235829	 0.126822
H	-1.0699498291	-0.2346661599	 0.7452785475	 0.120982
H	-0.1533875194	-0.4835991894	-0.7508125722	 0.088082
H	 0.7731209004	-2.4182484307	 0.2582764468	 0.087348
H	 2.9435355504	-2.9471670292	 1.6107615958	 0.10714
H	 2.8671917048	-2.151631095	 4.0502077493	 0.127544
H	 1.6724240655	-0.8648961167	 3.5523350966	 0.139887
H	 1.1192673624	-3.9431664446	 3.6307669068	 0.113618
