21
gdb 87732	3.28813	1.11197	0.94628	1.8472	85.94	-0.2377	0.0113	0.249	1333.2381	0.181775	-387.096933	-387.087888	-387.086943	-387.130985	34.556	
C	-0.0591253133	 1.5510598005	-0.0406458132	-0.421833
C	-0.075777299	 0.0506162947	 0.106088525	-0.00044
O	 1.1425251495	-0.6485430141	-0.1700242858	-0.306462
C	 0.6304091167	-0.6661192483	 1.1818073537	 0.405455
C	 1.4527533955	-0.0007841421	 2.2918164717	-0.327539
C	 1.6181961614	-1.078823423	 3.4030549212	-0.030657
C	 1.2605700138	-0.5729698387	 4.8075055351	-0.394373
C	 0.7283713932	-2.2061177525	 2.9250564832	-0.075006
C	 0.1937989859	-1.9780532892	 1.7266371778	-0.150713
H	 0.8342100489	 1.9854810249	 0.4139018504	 0.126534
H	-0.0731971925	 1.8308127766	-1.0993751916	 0.127981
H	-0.9430546368	 1.992058863	 0.4334995643	 0.119595
H	-0.9604360505	-0.434658103	-0.3151606535	 0.079178
H	 2.4095611712	 0.3484674998	 1.897575961	 0.117986
H	 0.9245594534	 0.8719958991	 2.6911570296	 0.104457
H	 2.6578019234	-1.4349347269	 3.4331719096	 0.085995
H	 0.2283957579	-0.2069221933	 4.8388282229	 0.11608
H	 1.3569832709	-1.3698458726	 5.5526661056	 0.112861
H	 1.920432081	 0.24733891	 5.1086577404	 0.115899
H	 0.5704733789	-3.0995718966	 3.5207850353	 0.095633
H	-0.4543743594	-2.6458504481	 1.1713427573	 0.099369
