18
gdb 109364	2.57879	1.48659	0.9788	1.7633	76.66	-0.2163	-0.0234	0.1929	1200.9444	0.15008	-435.318856	-435.310097	-435.309153	-435.352509	32.019	
C	 0.045629575	 1.4110195943	 0.0954537141	-0.311511
N	-0.0777628235	-0.0205626309	-0.048696182	-0.320324
C	-1.2812633594	-0.6431996257	-0.0421937807	 0.279
N	-2.3957967076	-0.0052600397	-0.0342729077	-0.338379
C	-3.6117195944	-0.8031382102	-0.0277185841	-0.144042
C	-3.4785210468	-2.1417525621	-0.7533830887	-0.17792
N	-2.2875761049	-2.827212179	-0.2612269977	-0.334574
C	-1.131168418	-2.1592308932	-0.0301691191	 0.385557
O	-0.0586687536	-2.6975930989	 0.1963552889	-0.392312
H	 1.0921909968	 1.6941605596	-0.0332929516	 0.121505
H	-0.5586540841	 1.9162166504	-0.6637949382	 0.143956
H	-0.3035319949	 1.7603691848	 1.0764149624	 0.127468
H	 0.7081386406	-0.6300792556	 0.1197201153	 0.262808
H	-3.9248895152	-0.9832850736	 1.0123845055	 0.107907
H	-4.4151718968	-0.2250111172	-0.4971857172	 0.108581
H	-4.3525747035	-2.7725483177	-0.5663719013	 0.11544
H	-3.4100589121	-1.9765064103	-1.8388565253	 0.114073
H	-2.1990835176	-3.8281376448	-0.3610244028	 0.252769
