16
gdb 19850	4.66325	2.08523	1.74562	3.2961	68.4	-0.2357	-0.0006	0.2351	771.9139	0.133331	-342.721683	-342.715703	-342.714759	-342.751507	24.17	
C	 0.0360577821	 1.3989092527	 0.2173028482	-0.231319
C	 1.2882590176	 0.7025221099	-0.1416818919	-0.072791
C	 1.8968992817	-0.1696438755	 0.9917323811	-0.076918
C	 2.2654276183	 0.1326793156	 2.4533545779	-0.271371
C	 1.2660540032	-0.8408724037	 3.188472537	-0.161079
N	 0.0504366845	-0.9350950843	 2.31815637	-0.26573
C	 0.4870369136	-0.616421511	 1.1779750436	 0.340105
N	-0.0505592031	-0.0663800512	-0.0550308625	-0.190452
H	-0.1447599155	 1.7369738925	 1.2337922793	 0.134658
H	-0.4386929602	 1.9981019449	-0.5533923707	 0.134013
H	 1.7620296815	 0.8450327777	-1.1062457579	 0.108991
H	 2.5364733912	-0.9354104397	 0.541134109	 0.10621
H	 3.3111935593	-0.0541661665	 2.7086862423	 0.105735
H	 2.0275791651	 1.1677427897	 2.7197111263	 0.111831
H	 1.7056726479	-1.8360087405	 3.3352329435	 0.112675
H	 0.9680073628	-0.4686970007	 4.1720097248	 0.115443
