20
gdb 58942	3.44941	1.23717	1.15647	1.912	77.8	-0.2247	0.0668	0.2915	1150.6127	0.170876	-403.066242	-403.057816	-403.056872	-403.09934	32.723	
C	 0.1455731154	 1.4453678385	 0.2577818755	-0.402638
C	-0.0545973312	-0.040401347	-0.0554244865	-0.016221
O	-1.4421058324	-0.372129697	-0.1194967978	-0.42485
C	 0.6738944833	-0.4604436519	-1.3033157251	 0.355601
C	 0.389699661	-0.1015976316	-2.757177052	-0.245459
N	 1.2490672319	-1.2748231141	-3.1889674938	-0.170717
C	 2.6220915338	-0.8151132511	-2.7345700347	-0.181228
C	 2.1509017075	-0.9245361362	-1.2956347527	-0.141136
C	 1.0535744349	-1.8380667189	-1.7603264481	-0.091988
H	 1.2040845517	 1.6770708554	 0.4108752093	 0.120997
H	-0.2145943424	 2.0683274572	-0.570340964	 0.109573
H	-0.410262661	 1.7191771858	 1.1582836349	 0.124255
H	 0.3247654017	-0.6354370095	 0.7848697263	 0.087162
H	-1.8455128535	 0.1840324354	-0.7947691342	 0.277812
H	-0.6484039505	-0.2996472346	-3.0399247251	 0.103772
H	 0.7048481787	 0.8676938788	-3.1620062499	 0.094665
H	 3.3607218891	-1.5781270091	-2.9941221099	 0.11138
H	 2.9359908135	 0.1545600254	-3.1384919985	 0.096393
H	 2.7196483525	-0.9718649372	-0.3746512798	 0.089179
H	 0.7269514459	-2.8363826183	-1.5073396839	 0.103448
