19
gdb 19282	3.08637	1.77425	1.36344	2.5435	70.16	-0.2385	0.0674	0.3059	965.5232	0.165981	-365.008283	-365.000221	-364.999277	-365.040589	30.598	
C	-0.2927772993	 1.5788723891	-0.0188009914	-0.412596
C	 0.0268018499	 0.0893273014	 0.0668437814	-0.028753
C	 0.5839935942	-0.6247122135	-1.1676578433	-0.028035
C	 1.9458416122	-0.1730749878	-1.4983778175	-0.249075
N	 1.7908516385	-1.1763878403	-0.4218572343	-0.162415
C	 1.2965376724	-0.4403080161	 0.8103596029	 0.018719
C	 2.3241702142	 0.4706293189	 1.458844668	-0.070599
O	 3.4511109443	-0.2794532924	 1.8798952621	-0.423982
H	 0.5437945347	 2.1646464208	-0.409878769	 0.117694
H	-1.1510119905	 1.7485193503	-0.678114344	 0.120023
H	-0.5497735747	 1.9821769215	 0.9665362605	 0.120431
H	-0.8530015713	-0.4389163754	 0.4446655202	 0.085048
H	 0.0053159494	-1.2514833331	-1.8393146142	 0.095333
H	 2.4101790539	-0.5953371283	-2.3842027496	 0.123545
H	 2.2694250657	 0.8374092329	-1.266436004	 0.114699
H	 1.029687291	-1.207513849	 1.5423705367	 0.093532
H	 2.6231728985	 1.2899685332	 0.7870568864	 0.082625
H	 1.8980126517	 0.9340863084	 2.3560017958	 0.108385
H	 3.6830024951	-0.8647012005	 1.148913353	 0.295421
