19
gdb 87794	4.17914	0.96149	0.90679	2.4412	76.48	-0.2379	0.0672	0.3051	1324.7122	0.157048	-422.966472	-422.957548	-422.956604	-423.000915	33.336	
O	 0.29773641	 1.3063494241	 0.3448302546	-0.424031
C	 0.0836870652	-0.0719096885	 0.2460622632	 0.088564
C	-0.7628707176	-0.8354642745	 1.2340286878	-0.397009
C	-1.2319497232	-0.6315551843	-0.1912184535	 0.30274
C	-2.4578029059	 0.1988310469	-0.6194482783	-0.40762
C	-2.8532957399	-0.9856624168	-1.5126181626	 0.465296
C	-4.1814763049	-1.546743099	-1.7581219599	-0.261643
O	-3.4535686081	-0.8550434333	-2.7849516627	-0.267455
C	-1.5280498802	-1.7129922598	-1.2468988156	-0.39766
H	-0.5101221364	 1.721827426	 0.6632485648	 0.286539
H	 0.9884807974	-0.5485142355	-0.1192443266	 0.108488
H	-0.4382241963	-1.8251943797	 1.5419605038	 0.115786
H	-1.26796107	-0.2700419136	 2.013518605	 0.107999
H	-3.1744734948	 0.4792624399	 0.158456906	 0.104343
H	-2.1920687681	 1.0884363009	-1.2016416241	 0.121
H	-4.2979856315	-2.6192444301	-1.9109649652	 0.115417
H	-5.0664582681	-1.0309859263	-1.3864392793	 0.114484
H	-0.8542499212	-1.6845580829	-2.1093699124	 0.11826
H	-1.6052806764	-2.7433138536	-0.887719835	 0.106503
