18
gdb 90358	2.24946	1.66653	1.38391	4.186	72.14	-0.2352	0.0019	0.237	1026.071	0.14655	-439.076606	-439.068132	-439.067188	-439.109508	32.374	
C	 0.0375252934	 1.5669096214	-0.0278878965	-0.482288
C	-0.0285731282	 0.0575479134	-0.0324945381	 0.354634
C	-1.4148822832	-0.6272557817	 0.0140679562	-0.436154
C	-0.8287816422	-1.4427046807	 1.1836884132	 0.395499
O	-1.1391453773	-2.4276281077	 1.7863294821	-0.321061
N	 0.3708515638	-0.6704070237	 1.2388320361	-0.174983
C	 1.5541327247	-1.2971012557	 0.5671319404	-0.223069
C	 1.1016193584	-0.6991593784	-0.8031430163	 0.039639
O	 0.5744460508	-1.6176394416	-1.7313074634	-0.421699
H	 1.0529600814	 1.921601837	 0.17698843	 0.122422
H	-0.2704518287	 1.9649969411	-1.0013861621	 0.127566
H	-0.6251384298	 1.9814578515	 0.7377266753	 0.128672
H	-2.2451088685	 0.038864714	 0.2624209042	 0.126995
H	-1.6800022197	-1.2461252363	-0.8436219815	 0.156418
H	 2.4980675216	-0.9025240702	 0.9523622458	 0.115152
H	 1.5581627022	-2.3888930057	 0.6254784646	 0.128076
H	 1.8363111173	-0.031130901	-1.272868063	 0.072117
H	 1.294655894	-2.1566704557	-2.0744939071	 0.292064
