16
gdb 8848	4.74554	1.26568	1.01204	4.9934	64.71	-0.2551	-0.0033	0.2518	1120.3071	0.129712	-417.121678	-417.112508	-417.111564	-417.156343	30.886	
C	 0.0133228429	 1.4761801142	 0.1050867055	-0.334168
N	-0.0453564028	 0.0263919274	 0.0920354908	-0.372886
C	-1.2302927459	-0.6369299515	-0.0281901072	 0.534294
O	-2.3077179051	-0.0805820569	-0.1315941143	-0.403947
N	-1.1150649808	-2.048046336	-0.0240116356	-0.175589
C	 0.1553003781	-2.7510946511	 0.0980133048	-0.374033
C	-2.2772175107	-2.8035130866	-0.1423860037	 0.173131
O	-2.2913977433	-4.0125565284	-0.1497821566	-0.331393
H	 0.6144280452	 1.8555777644	-0.7283737087	 0.129723
H	-1.0069025597	 1.8461832582	 0.0062387907	 0.17863
H	 0.4395164123	 1.8467601528	 1.043682367	 0.129727
H	 0.8129972729	-0.488083773	 0.1738176307	 0.251395
H	 0.6506300052	-2.5197788408	 1.0473576736	 0.135812
H	-0.0722776094	-3.81679999	 0.0702063275	 0.181796
H	 0.8266049306	-2.5109381044	-0.7337291187	 0.135797
H	-3.1650751096	-2.1654632283	-0.2268200956	 0.141712
