15
gdb 27371	1.95787	1.87058	0.96237	6.9795	71.24	-0.2251	-0.0145	0.2107	1151.1382	0.113191	-454.018112	-454.009959	-454.009015	-454.050995	30.31	
C	-0.0181294335	 1.4837979751	 0.0730140875	-0.486691
C	-0.0006432655	-0.0160631981	-0.0358567265	 0.391109
N	-0.0228241895	-0.6005033762	-1.1789045572	-0.342032
C	-0.0056438183	-2.0218970544	-1.2573993619	 0.381974
O	-0.0255753165	-2.5779607213	-2.3375089803	-0.370404
C	 0.0383614201	-2.7468369755	 0.0126187345	-0.402939
C	 0.0596936388	-2.0651276714	 1.1771173393	 0.489041
O	 0.0997915737	-2.5600926238	 2.4308112775	-0.420292
N	 0.040365842	-0.6946284362	 1.1667107145	-0.383944
H	 0.876771587	 1.8500565486	 0.5889357385	 0.140428
H	-0.0521001051	 1.9064060639	-0.9296459672	 0.170796
H	-0.8921260005	 1.8259876027	 0.6388650944	 0.140306
H	 0.0529684525	-3.8294444994	-0.0088464065	 0.103168
H	 0.1119231298	-3.5231939649	 2.3853066073	 0.318191
H	 0.0569222752	-0.2045530291	 2.0475927561	 0.271288
