16
gdb 43857	3.86119	1.05117	0.92579	2.199	78.3	-0.2475	0.022	0.2695	1253.4028	0.122598	-400.697134	-400.688918	-400.687974	-400.730114	31.404	
N	 0.1465971396	 1.1546387508	 0.7387830976	-0.537008
C	 0.0358200426	 0.0671359193	 0.1305744133	 0.431088
C	-1.11327344	-0.8465132919	-0.2511899418	-0.44067
C	-0.0045502968	-1.6874307967	-0.8652240871	 0.449157
C	 0.2481738878	-3.1439161751	-0.9068492548	-0.358255
C	 0.0783901475	-2.348644036	-2.2161348781	-0.290934
C	-1.1033574938	-2.4918752696	-3.0110595856	 0.333355
C	-2.109963319	-2.5971214073	-3.6615373233	-0.454296
O	 1.0052338911	-0.7476435568	-0.4439281968	-0.274064
H	 1.1210233569	 1.4549312283	 0.7949911226	 0.231815
H	-1.6430311451	-1.2899054501	 0.5936156676	 0.143679
H	-1.82874331	-0.4238691102	-0.9584306949	 0.154405
H	 1.2512856444	-3.4881038405	-0.6816844635	 0.139173
H	-0.5534664524	-3.8144837731	-0.6185071132	 0.138433
H	 1.0005899985	-2.1601177378	-2.7586467301	 0.132236
H	-2.9916569014	-2.6968924533	-4.2448594518	 0.201886
