18
gdb 32743	3.25804	1.04735	0.81627	1.6991	76.97	-0.19	0.0227	0.2127	1407.8687	0.148875	-435.288932	-435.2798	-435.278856	-435.323582	32.835	
C	-0.143797012	 1.4512723669	-0.1130969769	-0.392497
C	 0.312023773	-0.0029408496	-0.0820952302	-0.126511
N	 0.4089923097	-0.4776488029	 1.3028877952	-0.409239
C	 0.7074488297	-1.8011856289	 1.532199772	 0.40933
C	 1.5087341326	-2.4297383108	 2.4381814857	 0.080907
N	 2.3522277055	-1.7828892505	 3.3691424828	-0.609207
N	 1.3459204065	-3.8094524541	 2.292552806	-0.284341
C	 0.4986568503	-3.9375963564	 1.3323974865	 0.048797
O	 0.0484648831	-2.7531109722	 0.8136930882	-0.185745
H	 0.5762564497	 2.1024428608	 0.3956707381	 0.117127
H	-0.2353369353	 1.8015030001	-1.1451132553	 0.12154
H	-1.1118784276	 1.5642378156	 0.3828297177	 0.131436
H	-0.41517918	-0.6369745005	-0.5967948111	 0.129895
H	 1.2688362671	-0.1124937804	-0.6183317326	 0.096928
H	 1.0116591655	 0.0987168769	 1.8799461678	 0.246186
H	 2.04005452	-1.9472644913	 4.3227524988	 0.241725
H	 3.2976669811	-2.1509274663	 3.3117711956	 0.24175
H	 0.1117940112	-4.8341271864	 0.8761163819	 0.141919
