21
gdb 93689	3.15226	1.1824	1.09538	1.1908	74.4	-0.2485	0.0637	0.3121	1214.4468	0.181251	-461.369951	-461.360578	-461.359634	-461.403319	36.316	
C	-0.1426888897	 1.6094561259	 0.0100125416	-0.429898
C	 0.0210236584	 0.0811159873	 0.0041664241	 0.433583
C	-1.3278872687	-0.6252658854	 0.0047454762	-0.411783
O	 0.6863181468	-0.3672908957	-1.1700706928	-0.278806
C	 2.0684247758	-0.0589574469	-1.2421156473	-0.098619
C	 2.7962342323	-0.5958369883	-0.0118859605	 0.091313
O	 4.137073931	-0.1414308633	-0.081159759	-0.427282
C	 2.073371524	-0.065195255	 1.2306782214	-0.122144
O	 0.6910008892	-0.3748145935	 1.1751364924	-0.275722
H	 0.8125948285	 2.1378316709	 0.0049805141	 0.119762
H	-0.703165003	 1.9207635262	-0.8750463128	 0.125652
H	-0.6925117942	 1.9162594628	 0.9033186793	 0.124757
H	-1.8977855711	-0.3472017809	-0.8845809714	 0.121895
H	-1.1664052503	-1.7049436145	 0.0015311616	 0.12736
H	-1.895519729	-0.3518680264	 0.8970302394	 0.121092
H	 2.4436797448	-0.5258997434	-2.1560947033	 0.11523
H	 2.2507648822	 1.0235972892	-1.3182989753	 0.099973
H	 2.7365161306	-1.6941180623	-0.0202197948	 0.079197
H	 4.6404777237	-0.5745687287	 0.6150694539	 0.288675
H	 2.4526607015	-0.5323131975	 2.1460989959	 0.098237
H	 2.2559823971	 1.0175424697	 1.3067092772	 0.097526
