19
gdb 108433	2.27372	1.62768	1.18203	1.9279	75.24	-0.2436	-0.0282	0.2155	1111.0577	0.157982	-423.014332	-423.005624	-423.00468	-423.047955	32.347	
C	 0.1001691656	 1.6303762982	 0.0052665325	-0.387265
C	 0.0401216801	 0.0965088001	-0.0294575292	-0.300239
C	 0.6644072322	-0.5305479082	 1.2012891987	 0.181622
C	 2.203986646	-0.4604025096	 1.3936883738	-0.122451
O	 2.2904863648	-1.8653277882	 1.7116926641	-0.288559
C	 0.8771444938	-2.0528819552	 1.5182092468	 0.039825
C	 0.0808907148	-1.933851602	 2.8397965318	-0.360905
C	-0.0724475171	-0.4256253047	 2.5514243067	 0.357037
O	-0.624913813	 0.4759661523	 3.1142506136	-0.29983
H	 1.1359016695	 1.9865181872	 0.032496909	 0.117313
H	-0.3735677047	 2.0576867291	-0.8832204704	 0.115562
H	-0.4109513509	 2.0164842788	 0.8907781129	 0.150847
H	-1.004911359	-0.2271137595	-0.1124448536	 0.1046
H	 0.5544860932	-0.2823436902	-0.922071694	 0.10387
H	 2.7380767905	-0.2278990415	 0.4630700909	 0.109688
H	 2.5850684274	 0.1810504093	 2.1962928163	 0.117494
H	 0.6420893241	-2.8724436585	 0.8362271401	 0.086128
H	-0.8914814804	-2.4393647556	 2.8211690332	 0.134607
H	 0.6150792931	-2.2155072417	 3.7500872767	 0.140657
