17
gdb 60744	3.06034	1.04522	0.88811	4.8168	71.95	-0.2533	-0.0527	0.2006	1318.0062	0.133117	-458.9696	-458.960394	-458.95945	-459.004782	32.652	
O	 0.0942855326	 1.4617886824	-0.0886713977	-0.408474
C	 0.0009160098	 0.0837420848	-0.0134679864	-0.049541
C	 0.5308782016	-0.6121864101	-1.2818264686	 0.135943
O	 1.1643781034	-0.0554466491	-2.1322219795	-0.21748
C	 0.7657934907	-0.449302496	 1.2143381277	 0.35563
O	 1.4436038194	 0.3390691855	 1.8446343608	-0.348857
C	 0.6480610043	-1.8804254363	 1.5624666751	-0.113745
C	 1.8921356331	-2.5687710086	 2.1225639697	-0.247066
C	 0.7636594514	-2.2562367438	 3.0366756917	-0.249667
H	 0.7643413658	 1.7118486458	 0.56906713	 0.300314
H	-1.0506938551	-0.2401441462	 0.0916415677	 0.111272
H	 0.2648900742	-1.6919237256	-1.3549060885	 0.077237
H	-0.0196358898	-2.474128769	 0.9490678375	 0.098394
H	 2.0569215865	-3.5953417466	 1.8174220434	 0.130409
H	 2.7786288458	-1.9489086484	 2.1864288039	 0.148276
H	 0.885072299	-1.424646911	 3.7207737275	 0.148078
H	 0.1262031274	-3.0614246077	 3.3822496557	 0.129275
