23
gdb 88526	3.16196	1.20107	1.0803	0.2245	90.3	-0.2574	0.0885	0.3459	1252.2362	0.207021	-351.09642	-351.087918	-351.086974	-351.130023	33.875	
C	 0.0266808127	 1.5147403341	-0.3916210873	-0.416274
C	 0.0048280575	 0.0481859918	-0.0193715074	 0.012591
C	 1.252204283	-0.798082945	-0.089002429	-0.30814
C	 0.6096437629	-0.5140438383	 1.251967768	-0.164727
C	 1.3020527064	 0.2786723351	 2.3116575909	 0.383302
C	 0.6415037928	 1.1124268377	 3.4611971604	-0.25324
C	 2.1705310133	 1.191700136	 3.7213676781	-0.053762
C	 2.2338731904	-0.3280560372	 3.4144600784	-0.246722
C	 2.3508650179	 1.4358919923	 2.1983483628	-0.258506
H	 0.9895352345	 1.9789637804	-0.1672934309	 0.122468
H	-0.1544961029	 1.6387185727	-1.4653414252	 0.113881
H	-0.748117843	 2.077598722	 0.1411455908	 0.114692
H	-0.9082986479	-0.4572019319	-0.3257294095	 0.080134
H	 1.1962423861	-1.801776073	-0.4964437241	 0.106162
H	 2.1832549319	-0.2827361318	-0.3060237279	 0.108532
H	 0.050029266	-1.3461753171	 1.6756908124	 0.077165
H	 0.1409002039	 2.0395026767	 3.1663950076	 0.085814
H	 0.0469093278	 0.5528445355	 4.189788232	 0.08406
H	 2.6729591889	 1.7216032515	 4.5308577192	 0.068401
H	 1.7576289191	-0.9977504371	 4.137244408	 0.083405
H	 3.1955684528	-0.7248906836	 3.0758265075	 0.085559
H	 3.323982636	 1.1749785929	 1.7711203676	 0.086385
H	 1.9919868299	 2.3954598863	 1.8167207576	 0.088818
