15
gdb 13228	6.25488	1.02621	0.99728	2.821	70.49	-0.248	0.02	0.2681	1184.7978	0.117692	-362.615068	-362.607097	-362.606153	-362.648918	28.158	
C	-1.553148439	-0.2575511192	-0.754704566	-0.46773
C	-0.629102752	 0.3636906958	-0.3039191412	 0.331492
C	 0.5022922606	 1.1055274585	 0.2492123483	-0.3203
N	 0.7003331189	 2.3805861869	-0.4510286928	-0.320303
C	 1.7708623934	 2.5494763461	-1.0758494446	 0.473866
C	 2.3577434312	 3.6710486702	-1.9055240278	-0.373266
C	 3.5524133601	 2.7070516621	-2.0561213614	-0.076959
O	 2.8656522054	 1.7139487726	-1.2338827271	-0.260063
H	-2.3717239785	-0.8043737621	-1.1520853466	 0.195653
H	 0.2940954263	 1.3355235368	 1.3019904203	 0.137438
H	 1.3968968682	 0.4686254018	 0.2305094903	 0.141709
H	 1.8056925965	 3.8988202129	-2.8185493045	 0.143984
H	 2.5512134196	 4.59371116	-1.3563713497	 0.1417
H	 3.7389105685	 2.318608948	-3.0599240687	 0.127214
H	 4.4897345608	 3.0181910695	-1.5890812985	 0.125564
