17
gdb 107164	4.67194	0.99456	0.94606	2.5709	68.99	-0.2565	0.0621	0.3185	1253.4254	0.134261	-458.888276	-458.880043	-458.879099	-458.92144	30.998	
O	 0.0637448068	 1.3733348246	-0.3497677766	-0.41074
C	 0.069864749	 0.0105976336	 0.0431105015	-0.182526
C	-1.314099127	-0.5054695954	 0.2727376958	 0.394974
C	-2.3147709555	-0.1654224361	 1.3963045555	-0.394405
C	-2.8688963213	-1.6005753356	 1.210970213	 0.462945
C	-3.3331415327	-2.5431208042	 2.2277831824	-0.270845
O	-4.2219455473	-1.9918618687	 1.243400286	-0.260854
C	-1.9080639846	-1.845921121	 0.063956006	-0.15761
O	-2.1132205764	-0.7902003794	-0.8885884441	-0.28848
H	-0.4476184955	 1.4299610119	-1.1647315631	 0.295131
H	 0.5694566644	-0.6284571863	-0.7000865936	 0.101605
H	 0.6471009732	-0.0345991868	 0.9724762003	 0.116497
H	-1.8597036664	-0.0006035759	 2.3759137182	 0.116248
H	-3.0028486935	 0.6467964146	 1.1571795518	 0.12899
H	-3.1267143636	-3.6078078531	 2.1236457046	 0.119366
H	-3.4900831839	-2.1964785724	 3.2483014627	 0.120785
H	-1.4830972657	-2.7735307398	-0.3031342004	 0.108921
