21
gdb 108363	2.38919	1.46169	1.13124	1.8887	78.72	-0.237	0.0739	0.3109	1178.199	0.181007	-424.185316	-424.175864	-424.174919	-424.218996	36.079	
C	 0.0050258664	 1.5242940038	 0.0063470884	-0.467175
C	 0.0192267538	 0.0080415353	 0.0155354873	 0.241559
C	-1.1899205749	-0.6260060572	-0.6543924818	-0.460497
C	 1.302078051	-0.8024863901	-0.1815117598	-0.218766
C	 2.4703822717	-0.1421226851	 0.5298149394	-0.11677
O	 1.707978179	-0.0292965512	 1.765592688	-0.337766
C	 0.6085981743	-0.7561992077	 1.1704966635	 0.404413
C	-0.0116452655	-1.7577530262	 2.0933793238	-0.171295
O	 0.9570703126	-2.6321589918	 2.6431553443	-0.417349
H	 0.7968465069	 1.9388787074	 0.6327238395	 0.136307
H	 0.1218956524	 1.9122525109	-1.0119307944	 0.113265
H	-0.9498188035	 1.8972798389	 0.3940323641	 0.115193
H	-1.2615089692	-0.294603134	-1.6965715787	 0.120802
H	-1.1348049049	-1.7185890024	-0.6611774137	 0.119877
H	-2.1188988892	-0.337215326	-0.1503439893	 0.119839
H	 1.3726191732	-1.6068452294	-0.9022728008	 0.098494
H	 3.3288336567	-0.8073841552	 0.671873673	 0.112846
H	 2.8143800778	 0.8333823626	 0.1674789719	 0.106319
H	-0.552889364	-1.2161036289	 2.8883136032	 0.0964
H	-0.7420092035	-2.3729132069	 1.5613464106	 0.115365
H	 1.6720086388	-2.0626699866	 2.9525009714	 0.288939
