21
gdb 73274	2.27951	1.77674	1.35572	1.7945	77.8	-0.2427	0.0762	0.3189	1058.4087	0.183632	-424.222351	-424.214128	-424.213184	-424.254791	32.419	
C	-0.0478733334	 1.537237843	-0.0585710183	-0.455811
C	-0.022050683	 0.0199586839	 0.0070409868	 0.341388
C	-1.2530715762	-0.7416460009	 0.5385024869	-0.103645
O	-0.4246455181	-1.5628598479	 1.3891702564	-0.300504
C	 0.699508008	-0.6719808368	 1.2029319442	 0.107939
C	 2.0203806082	-1.3818164038	 0.9594253291	-0.240804
C	 2.1067340029	-1.9501356975	-0.4611620692	-0.204863
C	 1.6758433896	-0.8756472329	-1.4557452167	-0.075878
O	 0.3127850021	-0.5258538513	-1.2652940119	-0.300785
H	 0.9443786157	 1.9333676566	-0.3000459652	 0.119329
H	-0.73880167	 1.8667184673	-0.8405059858	 0.128087
H	-0.3643210568	 1.9725367815	 0.8942025429	 0.115023
H	-1.9526515199	-0.1268570427	 1.1211901614	 0.088414
H	-1.7943873932	-1.3257674782	-0.2109261764	 0.111805
H	 0.7837446618	 0.0097911212	 2.0624847392	 0.060738
H	 2.8309424176	-0.6566598271	 1.1125029693	 0.097412
H	 2.1435066115	-2.1616910558	 1.7192422021	 0.112781
H	 3.1260302653	-2.2854161094	-0.6811565023	 0.092731
H	 1.4398102756	-2.8120137198	-0.5685285536	 0.118371
H	 2.329363573	 0.0095618021	-1.3673501657	 0.08138
H	 1.7418280992	-1.2309830714	-2.4879940731	 0.106892
