21
gdb 112543	2.98687	1.06415	0.9623	2.1401	79.36	-0.2432	-0.0267	0.2164	1352.5111	0.179502	-424.24403	-424.233691	-424.232747	-424.27934	37.66	
C	 0.1431143116	 1.4476509595	 0.2795326176	-0.385659
C	 0.0606707749	-0.0595072206	 0.0139749911	-0.197461
C	-1.3736081296	-0.5797639173	 0.0111184496	-0.085027
C	-1.6668319305	-2.1141292444	-0.1181857854	-0.317162
C	-2.7746367181	-2.0116679041	 0.9931721103	 0.33069
C	-4.1861499666	-1.8870752859	 0.4215817753	-0.427814
O	-2.7629165248	-2.9662333402	 2.0258158071	-0.483573
C	-2.0977020283	-0.681001855	 1.358167669	 0.320408
O	-1.9308980882	-0.1696465657	 2.4341759113	-0.327235
H	 1.1824635739	 1.7895076503	 0.2811133914	 0.113599
H	-0.3928402309	 2.0148599936	-0.4898447423	 0.11091
H	-0.2989112585	 1.6915853038	 1.2492148883	 0.145279
H	 0.5266785772	-0.3001781954	-0.9495923338	 0.10151
H	 0.6323939813	-0.6001377569	 0.7784484816	 0.103243
H	-1.983046413	-0.0182991443	-0.7078277679	 0.099965
H	-1.9961787187	-2.4709736567	-1.0952035882	 0.107777
H	-0.8273056595	-2.716441542	 0.2361390301	 0.117601
H	-4.5098271436	-2.8659973657	 0.0547281775	 0.13351
H	-4.8818933419	-1.5642337312	 1.2009083454	 0.130954
H	-4.2310596828	-1.1750609025	-0.4080457059	 0.115472
H	-2.441127814	-2.5194032991	 2.819289078	 0.293013
