19
gdb 95874	2.75582	1.27734	1.10769	2.841	71.67	-0.2464	-0.0315	0.2149	1172.5585	0.158807	-460.174668	-460.166086	-460.165142	-460.207978	32.075	
C	-0.0265997056	 1.5279160809	 0.060755657	-0.404423
C	 0.0331685148	 0.0099570359	 0.0484890482	 0.128817
C	 0.6507327068	-0.5607579765	-1.2355092785	-0.240149
C	 0.8829820104	-2.0816305139	-1.0854499762	-0.005448
O	 1.5105297489	-2.3933903928	 0.137216185	-0.239153
C	 0.8835641419	-1.7985665863	 1.2577001135	 0.006051
O	 0.8248508441	-0.4017613648	 1.1623654488	-0.248501
C	-0.4015299803	-2.8672333961	-1.3326518056	 0.15499
O	-0.9413946453	-3.5971085283	-0.5449012455	-0.241353
H	 0.9779631169	 1.9491481469	-0.0432313553	 0.128467
H	-0.6469061389	 1.8958828373	-0.762088452	 0.116099
H	-0.4509553861	 1.8820193398	 1.0038425393	 0.129898
H	-0.9852124871	-0.3998488739	 0.172117346	 0.075768
H	 0.0121129224	-0.3503418453	-2.1010766296	 0.10473
H	 1.6180061911	-0.0778368243	-1.4064439373	 0.119682
H	 1.5739275986	-2.4095730935	-1.875680292	 0.110249
H	-0.1253039506	-2.2171201959	 1.3858660225	 0.108375
H	 1.5113428474	-2.0385762829	 2.1174272289	 0.119598
H	-0.8134816693	-2.7111160462	-2.3594615072	 0.076304
