19
gdb 101912	2.17785	1.22311	0.93643	2.7478	72.33	-0.2491	-0.0246	0.2245	1310.3107	0.156739	-460.152207	-460.14238	-460.141436	-460.187817	34.898	
C	 0.1873484655	 1.5812910855	 0.0886020092	-0.481648
C	 0.1781740106	 0.0684784998	 0.173108695	 0.379994
O	 0.3947960712	-0.522143742	 1.2077411548	-0.307957
C	-0.0827035897	-0.6869366099	-1.1304204672	-0.175721
C	 1.2818077576	-1.0212413767	-1.8023685756	-0.049715
O	 1.1200305522	-1.4260325213	-3.1389729102	-0.427489
C	-0.8606410306	-1.9620175522	-0.8627333366	 0.088993
C	-2.1803470071	-2.2230867635	-1.44852969	-0.185213
O	-1.0135481347	-2.8661964654	-1.9756999308	-0.256951
H	 0.8055977044	 1.9251843163	-0.747418562	 0.144847
H	-0.8310375349	 1.9396514859	-0.1050395507	 0.146134
H	 0.5486678594	 2.006895724	 1.0253350118	 0.145715
H	-0.6221528076	-0.0435238099	-1.8338717838	 0.088135
H	 1.9190012977	-0.1298891323	-1.8192587205	 0.107267
H	 1.7954579682	-1.779478254	-1.1905243711	 0.107797
H	 0.4619698699	-2.134782187	-3.1367041348	 0.29865
H	-0.5961705312	-2.4558415949	 0.0694996638	 0.128129
H	-2.878446704	-2.8877393778	-0.9435677369	 0.127642
H	-2.6338603669	-1.4774586345	-2.0997649642	 0.121389
