11
gdb 133478	3.58357	1.21012	1.07484	3.4209	49.06	-0.2892	-0.0381	0.2512	1032.272	0.062884	-583.038516	-583.031511	-583.030567	-583.071791	24.839	
F	 0.1625872471	 0.086445449	 0.0833864783	-0.069394
C	-0.0343858312	 1.4112701703	 0.0113618777	 0.245853
F	 1.17236583	 1.9838975554	-0.1207084634	-0.075746
F	-0.745049857	 1.6651619786	-1.0822955228	-0.048183
C	-0.707220416	 1.917817042	 1.2566925605	 0.211835
N	-1.9818598841	 2.2195125396	 1.2493785568	-0.180535
O	-2.2665507733	 2.6170489467	 2.5415809061	-0.154223
C	-1.1507107753	 2.5420482295	 3.2844743771	 0.085461
C	-0.1105013385	 2.1037903377	 2.5329431912	-0.329705
H	-1.2536334834	 2.8353349501	 4.3173729023	 0.167251
H	 0.9129829817	 1.9415451012	 2.8234396162	 0.147386
