16
gdb 5726	4.71135	2.11276	1.50967	3.8377	70.03	-0.2107	0.0405	0.2512	817.529	0.135316	-342.837633	-342.831537	-342.830593	-342.867819	23.76	
C	 0.1169296758	 1.4385256757	-0.3300997251	-0.213756
C	 1.4418557474	 1.9765981878	 0.278796934	-0.182357
N	 2.1267308982	 0.7451790184	 0.6307055058	 0.018127
C	 3.3739401042	 0.350062516	 1.0533244316	-0.163169
C	 3.2451862355	-0.9986308267	 1.2919025393	-0.094323
N	 1.95900725	-1.4341112501	 1.0410883366	-0.362093
C	 1.3231727725	-0.3537086313	 0.6511493147	 0.380221
C	-0.0772645409	 0.0143472968	 0.2660459112	-0.343469
H	-0.7230707126	 2.10462457	-0.1244811842	 0.11281
H	 0.2253907623	 1.3681650306	-1.4159046404	 0.122727
H	 2.0212068099	 2.5717685402	-0.4326490342	 0.123685
H	 1.2676386798	 2.5902131714	 1.1715032513	 0.121537
H	 4.2078104073	 1.027663452	 1.1277265646	 0.12234
H	 4.012369726	-1.6829854882	 1.6225848433	 0.102732
H	-0.7328055018	 0.0315520566	 1.145482568	 0.124492
H	-0.5193050037	-0.6819870391	-0.4503369064	 0.130495
