19
gdb 98680	3.42617	0.91132	0.8576	3.3604	74.22	-0.2678	-0.0421	0.2258	1429.3445	0.155312	-460.163964	-460.15399	-460.153046	-460.199045	36.048	
C	 0.2132518642	 1.5050602952	-0.4039757045	-0.468022
C	-0.0087316101	 0.0616610532	-0.0145487149	 0.392517
C	-1.2022182566	-0.617902579	-0.6531638239	-0.448049
O	 1.1658712457	-0.7429168321	 0.068336012	-0.26509
C	 0.481858447	-0.4816453694	 1.2900189696	-0.112973
C	 1.1674971226	 0.3620114723	 2.3167076325	 0.347507
O	 2.0783782692	 1.1268470246	 2.0753707193	-0.331882
C	 0.658679768	 0.2348466679	 3.7469052462	-0.133279
O	 1.304408224	 1.132664775	 4.5945329199	-0.419819
H	 1.1016608217	 1.9103811424	 0.079081158	 0.166095
H	 0.3436504229	 1.5706611339	-1.489493887	 0.129412
H	-0.6564572211	 2.1143175646	-0.1365040812	 0.121377
H	-1.1109990246	-0.5828318171	-1.7440441435	 0.134719
H	-1.2689949874	-1.664919256	-0.3486982582	 0.130345
H	-2.1320145804	-0.1091873117	-0.3790236659	 0.127599
H	-0.0614016707	-1.3336593711	 1.7030319292	 0.096359
H	-0.4326026121	 0.3966556009	 3.7481121287	 0.118345
H	 0.8117258401	-0.8115706849	 4.0660383829	 0.119349
H	 1.9754331475	 1.5632324715	 4.0397312209	 0.295491
