22
gdb 122547	3.38056	0.67509	0.61738	1.8189	79.94	-0.2206	0.0688	0.2894	1850.7231	0.192767	-441.434507	-441.423918	-441.422973	-441.471136	37.713	
O	-0.2028120768	 1.5287484327	-0.3754396406	-0.421353
C	-0.0436242647	 0.2018543539	 0.1057893825	-0.074161
C	-1.3668909266	-0.5270204699	-0.0833862675	-0.163307
C	-1.3053886814	-1.9833237463	 0.3764436137	-0.162701
N	-2.6230970932	-2.6061319081	 0.2389222338	-0.082965
C	-2.943956231	-3.2463250147	-1.0319420814	-0.260464
C	-2.7258950081	-4.0632478921	 0.1976303243	-0.010783
C	-1.5355729068	-5.0034653931	 0.342951852	-0.110163
O	-0.5298887438	-4.8866221128	-0.6516454193	-0.399998
H	 0.629520923	 1.9938523248	-0.2515989012	 0.283869
H	 0.7559432648	-0.325772794	-0.4402809332	 0.084289
H	 0.2360874622	 0.1967911983	 1.17247236	 0.08271
H	-2.1527553815	-0.000629656	 0.4682773088	 0.113501
H	-1.6406258862	-0.4832587135	-1.1443995455	 0.104292
H	-0.5222152708	-2.5255432895	-0.1736065155	 0.113908
H	-1.0384112055	-2.0221855075	 1.440858565	 0.095739
H	-3.9459247946	-3.0784427041	-1.418931795	 0.113034
H	-2.162134609	-3.2740621788	-1.7900272217	 0.102949
H	-3.6055311647	-4.4374083725	 0.722634823	 0.090097
H	-1.0269459992	-4.8143918384	 1.2953982697	 0.121017
H	-1.924357086	-6.0324123354	 0.3906087413	 0.096493
H	-0.91800638	-5.1559490231	-1.4904272531	 0.283995
