20
gdb 105939	4.05243	1.34454	1.2741	1.5858	81.9	-0.2181	0.087	0.3051	1085.0325	0.172418	-365.931896	-365.924459	-365.923514	-365.963805	29.938	
C	 0.1369745821	 1.4910959094	 0.1998063496	-0.378318
C	-0.0942255441	 0.0001329203	-0.0783099083	-0.329111
C	 0.6608444057	-0.4865866918	-1.2693031569	 0.413973
C	 2.1045302281	-0.7833013956	-1.5635703953	-0.151531
C	 0.9988155368	-1.8336685333	-1.8361800473	-0.174536
C	 0.5862297847	-1.3893726646	-3.2445364976	-0.004706
C	 1.8485392335	-1.0151729875	-4.0403519207	-0.244384
C	 2.0346999849	-0.0134603497	-2.8874151738	-0.003955
N	 0.5023370041	 0.0539309314	-2.6946299653	-0.22306
H	 1.1892605744	 1.6902172407	 0.4273420576	 0.114335
H	-0.1363530463	 2.0883060255	-0.6751472589	 0.136928
H	-0.4644229438	 1.8314043844	 1.0479524959	 0.108905
H	 0.1995950069	-0.6014973494	 0.7917725302	 0.100459
H	-1.165165148	-0.1849264147	-0.2354287374	 0.106109
H	 2.932458471	-0.9684718318	-0.8910065242	 0.085379
H	 0.9914837512	-2.8097417691	-1.3677739196	 0.085729
H	-0.3009808964	-1.8194236377	-3.7094393718	 0.075013
H	 2.6136815912	-1.7762137437	-4.2123405891	 0.097206
H	 1.5938670541	-0.5047661814	-4.973308788	 0.110949
H	 2.5840678697	 0.9214423284	-2.9991835091	 0.074617
