21
gdb 113655	3.0698	0.92769	0.84781	2.6933	80.93	-0.2389	-0.0054	0.2334	1503.9514	0.179533	-424.224529	-424.214119	-424.213175	-424.261046	36.663	
C	-0.0258045742	 1.5544403782	-0.1559709816	-0.377928
C	-0.157380603	 0.0346589151	-0.1849419896	-0.285651
C	-1.5614440016	-0.4621941454	 0.1293469578	 0.401894
O	-2.4670235899	 0.2932604976	 0.4028767102	-0.317297
C	-1.7480926902	-1.9520450692	 0.0655238112	-0.178357
C	-3.0800389419	-2.5196051569	 0.5219616984	-0.329042
C	-2.7411838322	-2.51349046	-0.9355419776	 0.138241
O	-3.3449336248	-1.6188063623	-1.8039804588	-0.227148
C	-4.6537535836	-2.003253918	-2.1786697071	-0.230831
H	 1.0002757541	 1.8594660868	-0.3802801157	 0.106312
H	-0.6933331362	 2.0156707312	-0.8881339397	 0.13318
H	-0.2994554659	 1.9501903758	 0.8253732969	 0.130195
H	 0.1263173895	-0.3745121099	-1.1647096521	 0.12561
H	 0.5312265499	-0.4382284193	 0.5301098542	 0.117698
H	-0.8474581652	-2.5408870633	 0.2062739305	 0.092693
H	-3.0903052203	-3.4591077454	 1.0624501139	 0.113932
H	-3.7782744087	-1.7604891926	 0.8585213207	 0.147032
H	-2.4709233232	-3.4674288882	-1.3938054201	 0.088017
H	-5.317886567	-2.0776787007	-1.3068685588	 0.115532
H	-5.0306782641	-1.2319301175	-2.8534978002	 0.131977
H	-4.6566614015	-2.9707019959	-2.7036564424	 0.10394
