19
gdb 113417	4.78495	0.83579	0.79448	4.2554	77.01	-0.2689	0.0117	0.2806	1486.2559	0.158021	-423.044093	-423.035258	-423.034314	-423.078006	32.94	
C	-0.0365719928	 1.5771340191	-0.5824096138	-0.370582
C	 0.0293257811	 0.2147828756	 0.1169738289	-0.204302
C	-1.3299266415	-0.4407279698	 0.2539655948	-0.074025
C	-1.9376878651	-1.2404823436	-0.9000914305	-0.360716
C	-1.4761600633	-1.9177100444	 0.3415153398	 0.433988
C	-0.4716367087	-3.0346063526	 0.5809934687	-0.499141
C	-1.5618952666	-3.5665463707	 1.5174842955	 0.437326
O	-1.7345524876	-4.4915859971	 2.2418818616	-0.314277
O	-2.4254908837	-2.5277606743	 1.2590546137	-0.261171
H	 0.9584394382	 2.0231328497	-0.6724033784	 0.115663
H	-0.4576842264	 1.4827708007	-1.588596317	 0.121125
H	-0.6673471759	 2.2765773965	-0.0235070461	 0.120007
H	 0.6984115226	-0.4522030774	-0.442067525	 0.096906
H	 0.4773657928	 0.332736656	 1.1120741855	 0.105973
H	-2.0535302061	 0.1170649029	 0.8444529916	 0.106224
H	-3.0072545244	-1.166760303	-1.0625165694	 0.133641
H	-1.3468907866	-1.373498212	-1.8018466429	 0.120392
H	-0.2527728839	-3.6868573831	-0.2664004295	 0.146276
H	 0.4556959478	-2.7587130724	 1.0868169526	 0.146693
