17
gdb 38174	2.67899	1.94201	1.28659	1.6791	72.34	-0.2483	-0.0079	0.2404	968.7933	0.137364	-421.791778	-421.78481	-421.783866	-421.823187	27.709	
C	-0.0824893961	 1.513930101	-0.1890735723	-0.17711
O	 1.2594654885	 1.6281712279	 0.350200067	-0.301136
C	 1.4129600794	 0.1850777449	 0.4554214927	 0.059222
C	 1.8039666414	-0.3286241928	 1.8459602671	-0.298482
C	 0.9787026412	-1.5317850385	 2.2570962025	-0.057883
C	-0.2530905389	-1.7933308951	 1.8097557312	-0.067657
C	-0.9276673639	-0.8815710373	 0.8498869912	-0.102278
O	-0.6273145794	-1.0569834399	-0.5739634759	-0.292714
C	-0.0599851112	 0.0245662021	 0.115415742	 0.368802
H	-0.8035022288	 2.1370776858	 0.3514316244	 0.112841
H	-0.1202417748	 1.7514947512	-1.2601902492	 0.114278
H	 2.0881717901	-0.1956350954	-0.3215040351	 0.089362
H	 2.869043233	-0.5764810413	 1.8917715174	 0.114689
H	 1.6483883596	 0.4862253681	 2.5654957863	 0.133748
H	 1.4365504845	-2.2072832396	 2.9754615969	 0.100866
H	-0.7923134379	-2.6709731529	 2.1537070775	 0.099049
H	-1.9681524668	-0.6205317683	 1.0334339562	 0.104404
