17
gdb 8287	5.12107	1.02621	0.98982	3.1662	66.58	-0.2516	0.0261	0.2777	1192.5638	0.141949	-401.007259	-400.998944	-400.998	-401.040922	29.943	
O	 0.2747636386	 1.4187236101	-0.110599697	-0.431877
C	 0.1220459589	 0.0208113076	 0.0103629577	 0.148821
C	 0.1464125524	-0.530832443	 1.4668007156	-0.277248
C	-1.4070811047	-0.6057705152	 1.4263435039	 0.062096
C	-1.3373174642	-0.5064925389	-0.1247916093	-0.277231
N	-2.0681385483	-1.7375621027	 2.0255116701	-0.291051
C	-3.0618430214	-1.6271476385	 2.9508688081	 0.150431
O	-3.5073914645	-0.5843921524	 3.3801043179	-0.321062
H	-0.350986216	 1.8535127848	 0.4786235792	 0.284644
H	 0.8532561938	-0.406995073	-0.6777976308	 0.091157
H	 0.5974368916	-1.5273248083	 1.5169794529	 0.09811
H	 0.6099755056	 0.1046433359	 2.2254904059	 0.112447
H	-1.8726394975	 0.2739589667	 1.8737129828	 0.121873
H	-2.0518503188	 0.1483285398	-0.6297606778	 0.112449
H	-1.3709554308	-1.4950277441	-0.5944733572	 0.098124
H	-1.784221011	-2.6646145925	 1.7474592951	 0.243332
H	-3.4283401537	-2.6205903263	 3.2774483832	 0.074986
