16
gdb 13928	3.54617	1.89048	1.5481	4.0619	64.08	-0.2668	0.0095	0.2763	856.4944	0.131471	-383.75558	-383.748531	-383.747587	-383.787164	26.083	
O	 0.4785462863	 0.0969303562	-0.4266675053	-0.334022
C	 0.2388723405	 1.2092362365	-0.0789541035	 0.435331
O	-0.953115755	 1.7082608631	 0.3878598389	-0.249773
C	-0.3772316731	 3.0465058196	 0.5580920801	-0.158935
C	 0.9760950894	 2.5417122604	 0.0431789998	 0.127456
C	 2.3164073609	 2.5602748316	 0.8242185029	-0.278946
C	 3.0597485276	 2.6115703348	-0.537899312	-0.20377
C	 1.7337640635	 3.0681909835	-1.2041245971	-0.278898
H	-0.895412966	 3.7726540245	-0.0730667295	 0.124038
H	-0.4133481688	 3.3514176711	 1.6068454185	 0.124035
H	 2.4242736541	 3.491869642	 1.3877953652	 0.109016
H	 2.5159840887	 1.7166201391	 1.4880815732	 0.120764
H	 3.9202439379	 3.2779810123	-0.6181775223	 0.103963
H	 3.3493651442	 1.6127969934	-0.8712245771	 0.129937
H	 1.4655624683	 2.6321935714	-2.1686325265	 0.120784
H	 1.6603341714	 4.1577597605	-1.2715733952	 0.10902
