19
gdb 73335	2.38092	1.87696	1.51679	3.3897	78.5	-0.2288	0.0051	0.2339	974.0873	0.160441	-385.904563	-385.896888	-385.895944	-385.936391	30.536	
C	-0.0448954837	 1.5189062501	-0.0035987894	-0.484096
C	-0.031642415	 0.0046291883	 0.0534651787	 0.175499
C	-1.4041215987	-0.694928493	-0.0223971399	-0.24959
C	-1.1178619616	-2.1717544709	 0.3509734293	-0.250122
C	 0.2724509312	-2.1292693651	 0.9863682279	-0.042174
C	 1.4537048705	-1.634960745	 0.1371165809	-0.203562
C	 0.7406588312	-0.7389279892	 1.1919056578	-0.116562
C	 0.9772096699	-0.6862096968	-0.9068653143	 0.409889
O	 1.3791603187	-0.385540287	-1.9992634784	-0.349893
H	 0.9610881916	 1.9332062041	 0.1140074546	 0.123887
H	-0.4275127247	 1.8576931967	-0.9710666943	 0.136175
H	-0.6836581579	 1.9379548511	 0.781663836	 0.113658
H	-2.0862089877	-0.2340956836	 0.7019150656	 0.099809
H	-1.8560616704	-0.58799085	-1.0129436468	 0.112737
H	-1.8541008668	-2.5577037902	 1.0623820937	 0.104499
H	-1.1367659147	-2.8301856046	-0.5230905948	 0.11301
H	 0.5557323368	-2.8954931324	 1.7004709631	 0.097201
H	 2.418505938	-2.1260816705	 0.181195173	 0.105515
H	 1.1810388534	-0.3023021421	 2.0773247772	 0.104119
