19
gdb 32217	2.6287	1.47371	1.02133	2.8597	86.87	-0.2075	-0.0096	0.1979	1196.3251	0.161523	-382.139574	-382.131055	-382.130111	-382.172626	32.801	
C	-0.0077495148	 1.5383754773	 0.1006880759	-0.378626
C	-0.0518093569	 0.0049403483	-0.0393718963	-0.286788
C	 0.7054900023	-0.4990250132	-1.2464899125	 0.280696
N	-0.0069897959	-0.7026001739	-2.3565538418	-0.31368
C	 0.6066314162	-1.141636598	-3.4576336291	-0.033362
C	 1.9709607419	-1.4024770883	-3.5035451968	-0.115213
C	 2.7249353991	-1.1884997315	-2.3581338577	-0.147813
C	 2.1001590429	-0.7251259002	-1.197833056	 0.236973
N	 2.8233891973	-0.5575177418	-0.0134621369	-0.596002
H	 1.0173983653	 1.9143112454	 0.1983836494	 0.104402
H	-0.4456388026	 2.0117504174	-0.7828290702	 0.135174
H	-0.5689561526	 1.8684148727	 0.9804243479	 0.115371
H	 0.335993668	-0.4664168787	 0.8723219021	 0.101096
H	-1.0911931993	-0.3139660506	-0.1505674099	 0.120976
H	-0.0203676351	-1.2934183899	-4.3322332348	 0.097841
H	 2.4355486899	-1.7615284118	-4.4153914218	 0.094191
H	 3.7949403552	-1.3788256026	-2.3541244738	 0.08705
H	 3.8211502833	-0.4713435071	-0.1451903477	 0.244963
H	 2.4760361556	 0.1576536264	 0.60707741	 0.252751
