15
gdb 43995	2.84719	1.76116	1.57857	4.2421	63.73	-0.2602	-0.0057	0.2545	888.3136	0.113302	-457.734429	-457.72765	-457.726706	-457.765642	26.548	
O	 0.1403907641	 0.1793408524	-0.4566472877	-0.317478
C	 0.1506839736	 1.3205358829	-0.1395017104	 0.3891
O	-0.9531214924	 2.1607325914	 0.052795708	-0.288735
C	-0.0657918899	 3.3185496962	 0.0979995838	 0.322074
C	 0.7881346991	 3.2734153821	 1.3144131946	-0.364559
C	 1.1604358172	 2.4332394489	 0.0941623607	 0.133959
O	 2.102992516	 2.8976645032	-0.7974067159	-0.277219
C	 1.3688612858	 3.6360687102	-1.8054940461	-0.093471
C	 0.1227854973	 4.2487840243	-1.0801951328	-0.321526
H	 1.4569310351	 4.1118338286	 1.4776778378	 0.146289
H	 0.4067462901	 2.7902315376	 2.2072629485	 0.146155
H	 2.0482799576	 4.3780472574	-2.2309471833	 0.125427
H	 1.0501598159	 2.9512829641	-2.6019193543	 0.127279
H	-0.7584736002	 4.2597044292	-1.7243668545	 0.142407
H	 0.3145315305	 5.2725131414	-0.7492927384	 0.1303
