11
gdb 131328	5.76511	1.38447	1.11638	7.1095	57.31	-0.2684	-0.0124	0.256	949.7681	0.068665	-481.007527	-481.001368	-481.000423	-481.038018	23.385	
O	-0.0366328327	 1.2606300581	 0.0099775289	-0.400037
C	 0.0410731261	-0.0634692485	 0.0024396683	 0.509651
N	 1.1417071948	-0.7706596853	-0.0085804628	-0.345367
N	 0.6354581428	-2.0524799982	-0.0122281841	 0.102499
N	 1.1307903432	-3.3057058165	-0.0227068843	-0.147956
N	 0.0728498611	-4.0669517711	-0.0183923416	-0.102329
N	-1.1081799407	-3.3653369247	-0.0077718523	-0.352728
C	-0.704666458	-2.1157514485	-0.0037382574	 0.54445
N	-1.1197666464	-0.8026717522	 0.0057759693	-0.452386
H	 0.8640196891	 1.6133496493	 0.0060449962	 0.336726
H	-2.0598777891	-0.4463245624	 0.0138993096	 0.307478
