17
gdb 112136	3.26997	1.1183	0.867	5.3658	69.88	-0.2539	-0.0814	0.1725	1309.8687	0.13492	-459.023326	-459.014668	-459.013724	-459.057481	31.242	
C	-0.0242363489	 1.5856083277	-0.0141745107	-0.391751
C	 0.0685754113	 0.059088125	 0.0477033588	-0.189685
C	 0.628109019	-0.5669720975	-1.2209271794	 0.124292
C	 0.7462646884	-2.0990601802	-1.2017006885	-0.379642
C	 0.2657118196	-2.5173223257	-2.5762124123	 0.279788
O	 0.377575766	-3.5720672909	-3.131942251	-0.26365
C	-0.4490518762	-1.2834858958	-3.1752977219	 0.339948
O	-1.0796906784	-1.2252743403	-4.1873429701	-0.309741
O	-0.2597424063	-0.2437821575	-2.3333188314	-0.227696
H	 0.9632359937	 2.0357647962	-0.1630658178	 0.119399
H	-0.6669628583	 1.9029573394	-0.8389937779	 0.146288
H	-0.4372370518	 1.9867016887	 0.9153349745	 0.121988
H	 0.714754903	-0.2502301822	 0.8791025579	 0.109927
H	-0.9205121521	-0.3759688614	 0.238658689	 0.111614
H	 1.5962592543	-0.1126603121	-1.4643073838	 0.105428
H	 1.7523301953	-2.4655017067	-0.9905331747	 0.151631
H	 0.0680955114	-2.5346334266	-0.4569013409	 0.15186
