18
gdb 85485	2.09935	1.53645	1.10548	2.2682	77.19	-0.2185	-0.0223	0.1962	1152.9487	0.145921	-401.921914	-401.913005	-401.912061	-401.955851	33.355	
C	-0.7280583572	 1.4278516106	 0.6915170685	-0.333706
N	 0.0975708971	 0.3514086447	 0.1520416538	-0.060906
C	-0.6810690283	-0.7174950286	-0.4752089717	-0.293456
C	-0.8948950969	-1.8039252942	 0.5936638005	 0.404407
O	-1.6303060751	-2.750756532	 0.5131036302	-0.302158
C	 0.0143970863	-1.4457335975	 1.7746207253	-0.335222
C	 0.9137781531	-0.3202119223	 1.1992356192	-0.212941
C	 2.1478366029	-0.8606437841	 0.6246082181	 0.346335
C	 3.1504354805	-1.3348687118	 0.1621602729	-0.434077
H	-0.0830912747	 2.1901851259	 1.138582663	 0.127945
H	-1.2811082634	 1.8989697832	-0.1258140587	 0.13049
H	-1.4619938646	 1.1102531261	 1.4551997361	 0.097338
H	-1.6322132018	-0.3591101989	-0.8746212513	 0.1319
H	-0.1211047715	-1.1690647848	-1.3053396368	 0.143262
H	-0.6111974981	-1.0644019765	 2.5895493192	 0.135316
H	 0.5525491514	-2.319611973	 2.1432232518	 0.144869
H	 1.1735704852	 0.4176653239	 1.9636539169	 0.109916
H	 4.0422395351	-1.7379561307	-0.2504637071	 0.200688
