22
gdb 120042	2.36777	1.11773	0.82499	0.7361	80.54	-0.2179	0.0802	0.2981	1461.3075	0.192433	-441.441367	-441.431101	-441.430156	-441.47697	36.97	
C	 0.104010571	 1.3199631561	 0.146278035	-0.224668
O	 0.092225779	-0.0826087437	 0.029824645	-0.236701
C	 0.6782110351	-0.5392061816	-1.1734537904	-0.06034
C	 0.6505657631	-2.0523256528	-1.1683562767	-0.004986
C	 1.2981224595	-2.8384638548	-2.3454396948	 0.113359
O	 2.3133844504	-2.1553527885	-3.0471979414	-0.435877
C	 1.7982549329	-3.8119348956	-1.2490140792	-0.207963
N	 1.6025948353	-2.7312304343	-0.2632272591	-0.08376
C	 1.1791005553	-3.0655724145	 1.0794599123	-0.325556
H	 1.1293696965	 1.7225315126	 0.1407853385	 0.104888
H	-0.4560647786	 1.8013489336	-0.6712170321	 0.104192
H	-0.3705497827	 1.574780602	 1.0971001353	 0.126085
H	 0.1224223621	-0.1584806415	-2.0478332799	 0.089502
H	 1.7143244594	-0.1768904844	-1.2573908758	 0.077189
H	-0.3890249416	-2.3882356515	-1.0071548405	 0.061831
H	 0.6191512264	-3.2365659013	-3.099942194	 0.090999
H	 2.9738532417	-1.8814431027	-2.4003691334	 0.288423
H	 1.1144717404	-4.6662718205	-1.1074896469	 0.084828
H	 2.8240479053	-4.186479793	-1.3446500948	 0.098104
H	 1.985904118	-3.584765058	 1.6082844269	 0.113644
H	 0.9420299755	-2.1460817901	 1.6201062923	 0.138507
H	 0.284489606	-3.7171450155	 1.0953018536	 0.088298
