21
gdb 97547	3.18219	0.67382	0.6567	1.0433	84.37	-0.25	0.0364	0.2863	1817.2182	0.178848	-424.190821	-424.179213	-424.178269	-424.229076	40.591	
C	 0.0548200781	 1.5247658011	 0.0660799837	-0.400778
C	 0.0066964559	-0.0189680597	 0.0010142014	 0.06108
C	 0.7477776909	-0.6223322484	 1.2160976941	-0.401934
C	-1.463605475	-0.496900411	-0.0038515204	-0.077236
O	-2.0833209105	-0.0536766658	 1.1934370809	-0.426712
C	 0.630284258	-0.4826249812	-1.2427992532	 0.055675
C	 1.1254525175	-0.862385424	-2.2745325133	 0.038113
C	 1.771971333	-1.352748713	-3.4913990668	-0.192981
O	 2.1131443328	-2.7322907903	-3.4384280081	-0.403123
H	 1.0899160195	 1.8761558394	 0.0847609769	 0.115881
H	-0.4384441664	 1.9664361334	-0.8048262776	 0.115734
H	-0.4556479223	 1.8716486606	 0.9672488092	 0.133802
H	 0.2488010982	-0.3201016534	 2.1394658376	 0.134197
H	 0.7519741581	-1.7153125753	 1.1658247851	 0.114128
H	 1.7852568096	-0.2783465665	 1.2425950224	 0.114892
H	-1.9681729765	-0.0879677905	-0.8918091702	 0.093813
H	-1.4818259688	-1.5940212783	-0.0825914891	 0.095
H	-2.9954392716	-0.3564828201	 1.190879561	 0.291065
H	 1.0965381824	-1.2480878316	-4.3479723314	 0.137287
H	 2.6557148128	-0.7313308233	-3.7092395094	 0.115992
H	 2.6014662545	-2.8738944722	-2.6207760927	 0.286107
