19
gdb 37493	3.34867	2.16699	1.91163	1.2259	83.3	-0.1873	-0.0664	0.1208	813.2654	0.162602	-348.627009	-348.621268	-348.620324	-348.656463	26.359	
C	-0.0531006728	 1.5588594769	-0.0362697654	-0.258568
C	 1.473529204	 1.3824308052	-0.0193333584	-0.009421
C	 1.2833678172	 0.0469953063	 0.8058528592	-0.037769
C	-0.0698473593	 0.016195325	 0.0141005416	-0.027003
C	 0.6119988096	-0.468895832	-1.2760134821	-0.069402
C	 1.4625233486	-1.6251759953	-0.8349514171	-0.087807
C	 2.2018187764	-1.0079940956	 0.1539494831	-0.025907
C	 3.141460725	-0.194893662	-0.780766194	-0.247323
C	 1.8811043913	 0.6565615971	-1.3063291315	-0.044284
H	-0.4268864103	 2.0063953846	 0.8891220648	 0.09672
H	-0.5166426979	 2.0507010447	-0.8984469834	 0.086696
H	 2.15141163	 2.1668087763	 0.3197960171	 0.064278
H	 1.256488475	 0.1303173503	 1.8906395929	 0.065161
H	-0.9450584268	-0.5474484833	 0.3371667572	 0.065672
H	 0.0076829144	-0.553139161	-2.1797825586	 0.06607
H	 1.9391893324	-2.2713877596	-1.5707580881	 0.098506
H	 3.8778486588	 0.4552969888	-0.2951585509	 0.097971
H	 3.6363279642	-0.7885424766	-1.550932357	 0.10532
H	 2.0090542703	 1.2824891603	-2.1947258094	 0.061091
