18
gdb 84672	2.61279	1.96598	1.55762	1.9559	75.16	-0.2253	-0.0036	0.2216	915.3109	0.150322	-401.901946	-401.894859	-401.893915	-401.933185	28.838	
O	-0.1957110895	 1.4471580873	 0.3540458028	-0.43158
C	-0.0032340367	 0.0513565201	 0.071603084	 0.047145
C	 0.9116049822	-0.6060513143	 1.0731023778	-0.107173
C	 0.4241559121	-1.3575912461	 2.0570708386	-0.040448
C	-1.0529312913	-1.5688183894	 2.1677854671	-0.035278
C	-1.9143684907	-0.295885531	 2.4615820235	-0.258618
C	-2.445190078	-0.439135488	 1.0444826723	-0.023867
C	-1.3864907139	-0.5879324464	 0.0226132155	-0.017879
N	-1.7495933713	-1.7747766111	 0.8270968884	-0.16366
H	 0.6752521848	 1.854291477	 0.417691683	 0.279661
H	 0.4442598095	-0.0493741006	-0.9294647797	 0.072184
H	 1.9796684389	-0.4354074403	 0.961522308	 0.08983
H	 1.0745294483	-1.8157427657	 2.7967459064	 0.095553
H	-1.2931481817	-2.40874427	 2.8202055715	 0.082841
H	-2.6807158595	-0.488148749	 3.2150057791	 0.106125
H	-1.3845195178	 0.6284891449	 2.6968898252	 0.117508
H	-3.4798387007	-0.2875503582	 0.7524926849	 0.090733
H	-1.7717962149	-0.6928702893	-0.9883113183	 0.096923
