15
gdb 27415	2.53903	1.66498	1.10237	4.8662	76.13	-0.2525	-0.0884	0.1641	1072.064	0.113213	-416.8415	-416.833752	-416.832808	-416.873882	28.496	
C	 0.028001795	 1.4803162686	 0.1978272039	-0.489831
C	-0.0607142913	-0.0117868561	-0.0113638374	 0.276367
C	-1.2445530782	-0.6628976113	-0.0304272795	-0.243799
C	-1.3878724611	-2.0864553811	-0.4322866644	 0.341987
O	-2.2107796892	-2.4387638876	-1.244982628	-0.318108
N	-0.5931910631	-2.990009065	 0.2782852844	-0.229867
C	 0.6691525947	-2.8515501131	 0.4298389295	 0.077334
N	 1.5394668724	-1.9221500283	-0.1134794637	-0.227607
C	 1.2007550081	-0.6927142926	-0.299289491	-0.012259
H	 0.4957183989	 1.9684441996	-0.6652452735	 0.145439
H	-0.9600309578	 1.9203148775	 0.3448630773	 0.140889
H	 0.6444854098	 1.7194441781	 1.0717524325	 0.145962
H	-2.1732279163	-0.1147315921	 0.1085957443	 0.133009
H	 1.1842163258	-3.6032935202	 1.0297487393	 0.136135
H	 1.9909237324	-0.0477830664	-0.6949098537	 0.124347
