18
gdb 31785	3.02762	1.3337	0.99223	2.0784	75.44	-0.1813	0.0532	0.2345	1196.9686	0.148369	-435.290773	-435.28134	-435.280396	-435.325068	33.716	
C	 0.4050747637	 0.7709375164	-0.6106122955	-0.334437
N	-0.3946092483	 0.1509972631	 0.4570330189	-0.379484
C	 0.3283432471	-0.5702022724	 1.4157139547	 0.351655
N	 0.6509581799	-0.1735729034	 2.6199754066	-0.320939
C	 1.2932815049	-1.2506637076	 3.2127849343	-0.235484
C	 1.3564142278	-2.2859250481	 2.3243063849	 0.324722
O	 1.8650279363	-3.5451651569	 2.3448183822	-0.443922
N	 0.731717719	-1.867236779	 1.1713246396	-0.074159
C	 0.4620498453	-2.6709189793	-0.0024074894	-0.342423
H	 0.901647963	-0.0058774046	-1.199060397	 0.126072
H	-0.2624636185	 1.3197090448	-1.280649228	 0.122036
H	 1.1749359929	 1.4583565003	-0.2315204482	 0.121957
H	-0.9208214126	 0.863044105	 0.9505361301	 0.242664
H	 1.672096967	-1.2066913491	 4.2220878572	 0.094363
H	 2.2292590874	-3.7080868441	 3.2201799249	 0.309009
H	 0.2524039421	-3.6993085264	 0.2990424728	 0.148763
H	-0.4094426794	-2.2503675057	-0.5073845752	 0.155934
H	 1.3112012123	-2.6802108529	-0.694997343	 0.133675
