17
gdb 44913	2.76195	1.78162	1.55795	4.3106	72.01	-0.247	-0.0054	0.2417	918.1555	0.139514	-421.888866	-421.882312	-421.881368	-421.919625	26.867	
O	-0.0225205811	 0.0141988176	-0.0135743298	-0.342812
C	 0.0203207202	 1.207081107	-0.022052044	 0.448973
O	-1.1017142492	 1.9910004784	-0.0235511208	-0.237484
C	-0.7194802615	 3.3902536406	-0.0502442137	 0.089075
C	 0.65323851	 3.3650230346	-0.7383663994	-0.246926
C	 1.2350864672	 2.1515474529	 0.0004104542	-0.197919
C	 1.4651469784	 2.5271686075	 1.4549297434	-0.073042
C	 0.6139349368	 3.3439505289	 2.0787627675	-0.049513
C	-0.6029100931	 3.9109431224	 1.387740754	-0.258839
H	-1.4964110705	 3.9159079389	-0.6075595948	 0.094331
H	 0.5479429666	 3.1768848714	-1.8106774094	 0.115188
H	 1.2265973169	 4.2808170524	-0.5830520212	 0.114473
H	 2.1033549421	 1.682466933	-0.4583753005	 0.097534
H	 2.3120256334	 2.0885559286	 1.9713545559	 0.104296
H	 0.7678374148	 3.6110197002	 3.1205104364	 0.098904
H	-0.5662287002	 5.0090082574	 1.3802319101	 0.114402
H	-1.5134471207	 3.6397012684	 1.9373292719	 0.129362
