17
gdb 74025	2.81682	1.62049	1.10904	4.8074	77.	-0.2548	-0.0373	0.2175	1082.5265	0.136453	-421.855157	-421.847324	-421.84638	-421.887711	29.468	
C	-0.0677351403	 1.4392345505	-0.0347762576	-0.49159
C	-0.0417909875	-0.0410293853	 0.1496139799	 0.029729
C	-1.0019539291	-0.9421306813	 0.3748568889	 0.111901
C	-2.3919215483	-1.3237185492	-0.0836484881	-0.310811
C	-1.6523396109	-2.5135866749	-0.8118743897	-0.256181
C	-0.4601623204	-2.3168555251	 0.197698512	 0.079252
O	 0.8986225665	-2.1765593462	-0.1579375507	-0.246013
C	 1.213163737	-0.8206714729	-0.1046341623	 0.391267
O	 2.3178234453	-0.4166607998	-0.3283149762	-0.339061
H	 0.5165311617	 1.9345399471	 0.7490492672	 0.148675
H	 0.3904761892	 1.7223303295	-0.9880300112	 0.145906
H	-1.0878307878	 1.8292013401	 0.0013215738	 0.12369
H	-3.0466721706	-1.6801179013	 0.7162822234	 0.12784
H	-2.9308952297	-0.6020040605	-0.6986432009	 0.126923
H	-2.1411163714	-3.4896198473	-0.8061302405	 0.117257
H	-1.3598202546	-2.2361424063	-1.8254292621	 0.133143
H	-0.542703269	-3.0038726169	 1.045485664	 0.108074
