18
gdb 66234	4.46267	0.70525	0.68533	3.8046	74.22	-0.2609	0.0035	0.2643	1650.5253	0.145464	-439.062539	-439.052985	-439.05204	-439.098056	34.1	
O	-0.1395511978	 1.3681813267	-0.2693860114	-0.469228
C	 0.0298348498	-0.0033187247	-0.0547668223	 0.423512
C	 1.113921453	-0.6060734349	-0.9057800737	-0.130338
O	 2.33065907	 0.050423353	-0.5533837206	-0.256806
C	 3.3989882019	-0.2869272515	-1.4008412427	-0.180514
C	 4.590370008	 0.4652978478	-0.9958531186	 0.263629
N	 5.5419670416	 1.0466971896	-0.6975735331	-0.289018
C	-0.2288469473	-0.5493404903	 1.3289290515	-0.312317
C	-1.2257591917	-0.7719536671	 0.2079718849	-0.313169
H	 0.7099965038	 1.782558182	-0.0747017683	 0.291013
H	 1.1984582179	-1.6902935453	-0.737524222	 0.096532
H	 0.895673366	-0.434156498	-1.9716091804	 0.104378
H	 3.6309024702	-1.3635431651	-1.353958533	 0.142107
H	 3.1736643309	-0.0495999191	-2.4534931265	 0.143704
H	 0.357367271	-1.391833577	 1.6795342169	 0.11503
H	-0.4926848836	 0.1754911937	 2.0898372417	 0.124568
H	-2.1390011592	-0.1889438948	 0.2280030795	 0.132224
H	-1.3299201346	-1.767630105	-0.209688202	 0.114691
