16
gdb 50480	4.18614	0.88264	0.75863	2.8723	79.81	-0.2628	-0.064	0.1988	1415.7654	0.124483	-400.789099	-400.780737	-400.779793	-400.823224	29.685	
O	-0.005525461	-0.0943017498	 0.1237615506	-0.236567
C	 0.0478076426	 1.1025259955	 0.0374424933	 0.154561
C	 1.3327659702	 1.9195964116	 0.046661478	-0.101276
C	 1.4096584612	 2.8995416296	-1.1600802972	-0.256628
C	 1.9872108491	 4.2250014881	-0.6065174156	-0.313597
C	 1.7555674481	 4.0925768496	 0.8871392924	 0.199488
C	 1.4104046846	 2.8468042208	 1.2385763288	-0.174663
C	 1.9498151165	 5.1757277325	 1.7877577095	 0.207561
N	 2.1125290481	 6.0799492486	 2.4931995909	-0.326278
H	-0.8747291778	 1.7218747821	-0.0607573194	 0.08279
H	 2.162631069	 1.2024535995	 0.0666369614	 0.11473
H	 1.998554572	 2.4887553996	-1.9816849628	 0.126895
H	 0.3980465013	 3.0766920084	-1.5427964458	 0.119742
H	 3.0597353714	 4.3292798714	-0.8106553591	 0.134263
H	 1.4996904124	 5.1085035775	-1.02840893	 0.133398
H	 1.2411126923	 2.5143222249	 2.2557288148	 0.135581
