21
gdb 101622	3.43206	0.70068	0.669	4.7608	79.65	-0.2621	0.0224	0.2845	1723.9919	0.181221	-420.409198	-420.398238	-420.397294	-420.44586	38.905	
C	-0.0970809157	 1.5518901011	-0.0842686306	-0.400158
C	 0.0341754122	 0.0230345945	-0.0490982994	 0.023348
C	 0.7827616407	-0.4847566379	-1.2846327964	-0.083589
O	 0.0267933861	-0.1380523873	-2.4343700215	-0.422722
C	 0.7298027456	-0.4940274683	 1.2198965475	-0.200076
C	-0.0257848313	-0.178505244	 2.536999987	-0.147334
N	-1.3788169193	-0.7246175928	 2.6672617239	-0.502284
C	 0.7847014032	-0.6466732049	 3.6750452312	 0.301827
N	 1.4469707575	-1.0298291238	 4.5406547332	-0.320761
H	 0.8810815711	 2.0302325673	 0.0478835755	 0.114279
H	-0.5018262284	 1.8684497045	-1.0476124078	 0.142707
H	-0.7605611494	 1.9307475993	 0.6995103508	 0.110074
H	-0.9711631919	-0.4165453327	-0.1038540317	 0.077028
H	 1.7884108659	-0.0334022236	-1.3159503797	 0.088612
H	 0.9145226299	-1.5762557069	-1.2130584081	 0.086725
H	 0.5327986766	-0.3800526515	-3.2150993988	 0.29024
H	 0.8569161344	-1.5824279547	 1.1576522343	 0.106147
H	 1.7382416332	-0.0657407084	 1.2884891269	 0.115824
H	-0.1108039321	 0.9093676211	 2.6442744512	 0.138053
H	-1.9840202059	-0.3084842744	 1.9673646388	 0.243367
H	-1.3706504222	-1.7268523664	 2.4994221535	 0.238692
