16
gdb 124964	3.06445	1.25295	0.96012	4.3239	75.99	-0.2448	0.0002	0.245	1196.9516	0.123946	-396.904202	-396.895471	-396.894527	-396.938386	31.362	
C	 0.4608204537	 1.4442473688	-0.0359891349	-0.515945
C	 0.1591201454	-0.0167217114	-0.0538648874	 0.261058
C	 0.0063498592	-0.9411109263	-1.0683001719	 0.236492
C	 0.0898996829	-0.7826116894	-2.5626808427	-0.457109
C	 1.2741712572	-0.0645151423	-3.0297948177	 0.30574
C	 2.2412386338	 0.5344075148	-3.4183092405	-0.460909
N	-0.2855419575	-2.1549128378	-0.5169933203	-0.251605
N	-0.324699344	-2.0457155319	 0.7783781479	-0.1243
N	-0.0581153548	-0.75700321	 1.0627740597	-0.219965
H	 1.1499978995	 1.70128263	 0.7752050326	 0.134732
H	 0.9256306637	 1.7381239751	-0.9787798584	 0.165956
H	-0.4474094872	 2.0438039536	 0.0967300223	 0.142957
H	 0.0724253132	-1.7900799773	-2.9930073952	 0.163227
H	-0.8073862247	-0.2757403628	-2.9439945613	 0.143048
H	 3.102430276	 1.0474192587	-3.7686127467	 0.19967
H	-0.0271181763	-0.4624563118	 2.0263732244	 0.276952
