18
gdb 69818	3.16027	1.62848	1.29495	2.3375	77.19	-0.2279	0.0105	0.2385	997.6322	0.148661	-401.905763	-401.898344	-401.8974	-401.937109	30.482	
O	-0.0285282231	 1.3975346006	 0.1718497652	-0.468228
C	 0.0444663038	 0.0079710595	-0.0156332105	 0.365935
C	-0.4923445434	-0.5511235978	-1.3211665803	-0.361857
C	-1.2765549464	-0.7236291254	-0.0377244432	-0.03331
N	-1.4497734641	-1.9732405235	 0.6650318834	-0.108317
C	-0.8793041195	-3.2109754595	 0.1635928812	-0.248343
C	-0.2903061782	-2.5474522596	 1.3709584583	-0.059794
C	 1.0064466865	-1.8433232276	 1.3086612793	-0.058218
C	 1.1586273696	-0.6727663095	 0.6817054154	-0.163472
H	 0.6044077948	 1.8105991138	-0.4258911949	 0.281692
H	-0.8917593471	 0.1684609294	-2.0286067187	 0.114695
H	 0.0178081817	-1.3980996481	-1.764608834	 0.117144
H	-2.1424597354	-0.0773827594	 0.0607398109	 0.113429
H	-1.5067910561	-4.0901810644	 0.2865190245	 0.116238
H	-0.2903376743	-3.1972147093	-0.7497770756	 0.112485
H	-0.5304404753	-2.978612191	 2.3420839669	 0.096931
H	 1.8346885006	-2.2902008789	 1.8513888882	 0.094897
H	 2.1135904258	-0.1538243394	 0.6988123438	 0.088093
