21
gdb 76687	3.33805	0.86966	0.82908	1.9795	79.06	-0.2303	0.0534	0.2837	1492.6696	0.181737	-424.182443	-424.172949	-424.172005	-424.217408	35.788	
O	-0.0116275518	 1.049693427	-0.4429975321	-0.431065
C	-0.2051092887	-0.2899394902	-0.0979634821	 0.088387
C	-0.4714444449	-0.5991730276	 1.3572374055	 0.001062
O	-0.5698323853	 0.5233671458	 2.2034117698	-0.423936
C	-1.5789382797	-0.7661117073	 0.3432463773	-0.078827
C	-2.7775706823	 0.162750563	 0.2954113645	-0.237698
C	-3.3486764297	 0.2810387174	-1.1036297432	 0.045827
C	-4.315235061	-0.7530616714	-1.6256118704	-0.258456
C	-4.7953359687	 0.6442497032	-1.3108198546	-0.278758
H	-0.1359536897	 1.5555473057	 0.3721210972	 0.283736
H	 0.4216575006	-0.9514957374	-0.6883204482	 0.095963
H	-0.0480990385	-1.4851683976	 1.8262562362	 0.090224
H	 0.3008576062	 0.675817832	 2.5872595208	 0.296212
H	-1.8062952968	-1.8001920163	 0.0950828261	 0.08769
H	-3.551620077	-0.2089469631	 0.9794453592	 0.091177
H	-2.4979541698	 1.1536318772	 0.6639940583	 0.104235
H	-2.6442590167	 0.6840283273	-1.8256254695	 0.097372
H	-4.246440433	-1.0533016602	-2.665453073	 0.107807
H	-4.6170495733	-1.5512600674	-0.954176928	 0.104264
H	-5.4155975125	 0.7781566297	-0.4300455094	 0.106615
H	-5.0524354275	 1.2994393302	-2.1358800445	 0.108169
