21
gdb 64951	3.26251	1.10916	0.95587	2.5357	85.	-0.2403	-0.0124	0.228	1323.6723	0.181914	-387.093598	-387.084399	-387.083455	-387.128135	34.986	
C	 0.1196441886	 1.5072167265	-0.1987895795	-0.489288
C	 0.0455987913	-0.0039607577	-0.0930756555	 0.239858
C	 1.3552870227	-0.7757727173	 0.0481322853	-0.275119
C	 0.4544774639	-0.6490277184	 1.228917171	-0.275112
C	-1.0289495135	-0.7548524627	-0.8322145395	 0.329169
O	-1.1016257654	-1.9707747493	-0.7572644637	-0.36567
C	-2.0088327241	 0.0076410802	-1.6613239982	-0.126179
C	-2.5249108161	-0.680687405	-2.919709475	-0.245769
C	-3.4236484835	-0.5541868968	-1.741155811	-0.245765
H	 0.9549384528	 1.8862640222	 0.3976052203	 0.115023
H	 0.2807425888	 1.8388413845	-1.2304347029	 0.12346
H	-0.7905349517	 1.989615516	 0.1741433665	 0.12346
H	 1.3953848133	-1.7395602278	-0.4448228985	 0.135803
H	 2.2684232429	-0.1911320979	 0.0191642529	 0.111131
H	 0.7329471992	 0.0249477873	 2.0318341793	 0.111132
H	-0.1057715035	-1.5283270908	 1.5229352277	 0.1358
H	-1.9082819588	 1.0833957829	-1.7000992812	 0.09064
H	-2.699161246	-0.0537942531	-3.7866455083	 0.115211
H	-2.10177586	-1.6581281471	-3.1194292598	 0.138501
H	-3.6010854438	-1.4470952462	-1.1533162355	 0.138499
H	-4.2362643671	 0.1625429104	-1.7709871744	 0.115214
