17
gdb 30896	3.03479	1.19396	0.89251	3.4489	74.7	-0.1692	0.0364	0.2056	1269.5889	0.136729	-455.159914	-455.150785	-455.149841	-455.193662	34.126	
N	 0.1025870118	 1.3542265176	 0.2515922924	-0.595223
C	-0.0403452648	-0.0159670978	 0.0904734599	 0.37398
C	-1.1296165975	-0.8321427	-0.0201963034	-0.342676
C	-0.6056780007	-2.1707523493	-0.0569668457	 0.189224
N	-1.3471248001	-3.3547890446	-0.0989300079	-0.61442
C	 0.7533367035	-2.0706052543	 0.0242122405	 0.21921
C	 1.8310632176	-3.0902178412	 0.0250383201	-0.187459
O	 1.6364990535	-4.079523803	-0.9976461443	-0.415741
O	 1.1038543119	-0.7233978744	 0.1170451238	-0.215569
H	 0.9697235975	 1.7041012715	-0.1356043876	 0.254435
H	-0.6870658876	 1.8773669202	-0.0996727096	 0.254563
H	-2.1643964662	-0.5307589245	-0.0624727726	 0.089481
H	-2.2043362566	-3.2706771065	-0.6286781124	 0.238979
H	-0.7922754904	-4.1280712531	-0.4465476339	 0.250791
H	 2.803858457	-2.5858809835	-0.0716121367	 0.105673
H	 1.8605951641	-3.6752036799	 0.9531948497	 0.119319
H	 1.5205358471	-3.5967474173	-1.8240496123	 0.275433
