15
gdb 65848	2.67131	1.3779	1.2553	2.9568	67.02	-0.2769	-0.0019	0.275	1057.7598	0.110009	-457.767248	-457.75886	-457.757916	-457.800307	31.066	
C	 0.0471114577	 1.5510894435	 0.0063323551	-0.425987
C	 0.0383528913	 0.0342439783	-0.006332231	 0.208775
O	 0.7465662876	-0.4307846775	-1.1451911488	-0.254703
C	 1.3812140041	-1.6379334721	-0.7674368011	-0.237196
C	 1.5381470195	-1.520546998	 0.7436441501	 0.402346
O	 2.1873563293	-2.1831735865	 1.4926534863	-0.317854
O	 0.7735614625	-0.4614999411	 1.1332253286	-0.228482
C	-1.3227821518	-0.5285357338	 0.0328965104	 0.379171
C	-2.4339363677	-0.983232202	 0.0458128063	-0.469597
H	 1.0817301593	 1.8997878653	 0.0125636475	 0.138587
H	-0.4579286793	 1.9222065718	-0.8878979572	 0.14732
H	-0.473628524	 1.9216903484	 0.8910822203	 0.147605
H	 0.7788893407	-2.5245653668	-1.0108525502	 0.143654
H	 2.3505484537	-1.714720555	-1.2631892981	 0.15415
H	-3.4171305329	-1.3868454145	 0.0608154017	 0.212209
