19
gdb 126813	2.23776	1.52437	0.97766	2.9281	78.98	-0.211	0.0398	0.2508	1245.754	0.159913	-419.223132	-419.213924	-419.21298	-419.258305	32.811	
C	 0.1428543301	 2.4039739301	-0.3430736287	-0.375617
C	-0.1860447687	 0.912015225	-0.2688100806	-0.146598
N	 0.5537583835	 0.1269188315	-1.2406710312	-0.056492
N	 0.1612013897	 0.0930763986	-2.5428540377	-0.277805
C	 1.071082256	-0.6583948168	-3.147740846	 0.00696
C	 2.0698925646	-1.1215743106	-2.2627786163	-0.391001
C	 1.6924661431	-0.582602429	-1.0460770931	 0.494295
O	 2.2117585606	-0.6333572284	 0.1952244209	-0.263036
C	 3.3809890979	-1.4290450279	 0.3279976074	-0.247718
H	 1.1974581915	 2.5833687061	-0.1140220578	 0.125416
H	-0.0647785747	 2.7865307959	-1.3455365188	 0.143589
H	-0.465257934	 2.9610205629	 0.3764202442	 0.115798
H	 0.0473206119	 0.5086631744	 0.719432503	 0.129495
H	-1.2482050101	 0.7432246713	-0.4651642627	 0.129561
H	 0.9825561228	-0.8535793937	-4.2069374313	 0.107132
H	 2.9191702567	-1.7476996669	-2.4751384239	 0.102627
H	 4.1921899701	-1.0414762465	-0.3000014368	 0.131806
H	 3.6726457694	-1.3757664011	 1.3774984969	 0.139561
H	 3.1798440698	-2.471381225	 0.0529623227	 0.132028
