13
gdb 133571	3.59446	1.10203	1.04003	1.7917	52.62	-0.2835	0.011	0.2945	1105.9594	0.085631	-584.250976	-584.24328	-584.242336	-584.284186	27.771	
F	-0.2084904654	 0.041059951	 0.1970543289	-0.073
C	-0.0498888141	 1.3636624789	 0.0861767843	 0.27272
F	 1.256658911	 1.6311992751	 0.1429884413	-0.065791
F	-0.5014448386	 1.7378582344	-1.1211356477	-0.075143
C	-0.8139280624	 2.1129705587	 1.1651477638	-0.019731
C	-2.2598871317	 1.6470518224	 1.4265028093	-0.382199
C	-1.7028334848	 1.2297079547	 2.7727565608	 0.450867
N	-2.1685163967	 0.6966824862	 3.8011464964	-0.528212
O	-0.4138507905	 1.6727417441	 2.4874409387	-0.255196
H	-0.6537083498	 3.185306787	 1.0315385365	 0.126035
H	-3.0079497499	 2.4388506601	 1.4651734798	 0.150789
H	-2.6152848648	 0.827698661	 0.8015304644	 0.160268
H	-1.4569505823	 0.5761118763	 4.5233768335	 0.238593
