13
gdb 4681	6.36013	1.35088	1.12202	6.1124	70.13	-0.2415	-0.0375	0.2039	994.7718	0.097496	-357.703903	-357.696857	-357.695913	-357.735336	25.209	
C	 0.0026888387	 1.4980533038	 0.0870982788	-0.511735
C	-0.0031732027	 0.0128588382	-0.0355554146	 0.305425
C	-0.0620876306	-0.8272421648	-1.1289376455	-0.158734
N	-0.040948573	-2.1393127467	-0.7526592223	-0.286228
C	 0.030526273	-2.1181991428	 0.5650186253	 0.246777
N	 0.055821344	-0.8313412819	 1.0434355062	-0.336632
C	 0.0782155525	-3.2385992298	 1.4327246416	 0.23662
N	 0.119163397	-4.1236192186	 2.1785280433	-0.337656
H	 0.9145924153	 1.8649430441	 0.5721726331	 0.14336
H	-0.0510861775	 1.9494341701	-0.9056957953	 0.152822
H	-0.8521262235	 1.8640500295	 0.6674564	 0.143369
H	-0.118665137	-0.5423707864	-2.1688763109	 0.121251
H	 0.1082590438	-0.5639017647	 2.0135183902	 0.28136
