20
gdb 58690	2.41883	1.19312	0.96654	2.2936	77.3	-0.2549	0.0208	0.2757	1299.4115	0.168455	-440.265355	-440.255423	-440.254479	-440.30031	36.653	
C	 0.5693270669	-0.0408041332	 1.3720063647	-0.417412
C	 0.0528381144	-0.0363604877	-0.0650653404	 0.070136
O	 0.9513451025	-0.6844426893	-0.9565227519	-0.428178
C	-1.3503422099	-0.6394656665	-0.1683952687	 0.403733
C	-1.841433975	-1.2564250509	-1.4488100677	-0.327681
C	-1.5506363849	-2.1206785606	-0.2379336254	-0.31665
O	-2.2870646427	 0.0433526241	 0.6451623446	-0.231815
C	-2.8238208901	 1.1749055336	 0.1335824754	 0.109171
N	-3.5549098172	 1.9038451779	 0.8590321555	-0.445796
H	 1.550860921	 0.4383696532	 1.4221823541	 0.122883
H	-0.1192385725	 0.4876119195	 2.0351270293	 0.151441
H	 0.6613180012	-1.069807554	 1.7417614613	 0.112443
H	-0.0060805678	 1.0015651214	-0.4205740912	 0.087353
H	 1.3394932162	-1.4331206376	-0.4921959191	 0.286117
H	-2.881585109	-1.1067542398	-1.7148569741	 0.121939
H	-1.144296292	-1.2949171984	-2.2767273907	 0.137604
H	-0.6745760712	-2.758658278	-0.2667138192	 0.104193
H	-2.3939478704	-2.5222341584	 0.3110571864	 0.132949
H	-2.5658793516	 1.3403184206	-0.9198453518	 0.098392
H	-3.894565158	 2.697177094	 0.3189805391	 0.229177
