21
gdb 119423	3.25354	0.99761	0.89945	1.9679	80.31	-0.2264	0.0798	0.3062	1415.5858	0.1799	-424.180871	-424.171136	-424.170192	-424.215903	35.735	
C	-0.0489117455	 1.5267063603	-0.1148440249	-0.386953
C	-0.1525154703	 0.0129823531	-0.1603114077	-0.056835
O	 0.8902601843	-0.4788551884	-1.0024013667	-0.28813
C	 0.8842015314	-1.8410042568	-1.1687239308	 0.312287
C	-0.1255645095	-2.5839163323	-2.028627997	-0.396137
C	 1.3515841015	-2.6690779527	-2.3372553281	 0.377282
C	 2.0160396174	-2.3824444519	-3.6417445817	-0.485986
O	 1.9563986266	-3.6457687438	-1.4704002413	-0.321621
C	 1.6366159759	-2.8468352159	-0.2988484709	-0.144148
H	 0.9219380159	 1.8344885567	 0.2835831055	 0.128792
H	-0.1564984869	 1.9490115602	-1.1180184144	 0.127223
H	-0.8340975602	 1.9422614204	 0.5237278132	 0.116876
H	-0.0530482053	-0.4137962224	 0.849261673	 0.094153
H	-1.1277726079	-0.3053302299	-0.5567295452	 0.097405
H	-0.65929618	-3.4566571246	-1.6606440229	 0.109089
H	-0.6873939449	-1.9340252009	-2.6933103509	 0.115408
H	 1.5279950618	-1.5392061368	-4.1381460916	 0.129074
H	 3.0722503113	-2.1379254744	-3.4938867766	 0.13059
H	 1.9549109436	-3.251574815	-4.3061971071	 0.131124
H	 2.5457705206	-2.4252306473	 0.1454737381	 0.110387
H	 1.0762291902	-3.4148328875	 0.4530275982	 0.100119
