21
gdb 81742	2.97675	1.23008	1.04337	0.8919	90.62	-0.2283	0.0428	0.2711	1246.3593	0.180821	-349.904037	-349.89459	-349.893646	-349.937637	36.622	
C	-0.453447216	 1.5395761114	 0.3589674715	-0.407323
C	-0.1075647611	 0.0619374373	 0.2061995534	 0.006361
C	 0.2923852733	-0.4561671383	-1.1815975715	-0.121979
C	 1.6098884997	 0.0997394928	-1.6222109527	-0.331957
C	 1.6136172838	-1.0314620438	-0.6157982621	 0.213644
C	 2.2400444497	-2.2832482324	-0.8709444812	 0.161014
C	 2.7711593037	-3.3486376084	-1.0548158695	-0.411633
C	 1.2459750757	-0.506933745	 0.791767854	-0.062969
C	 2.2340987771	 0.4093822752	 1.5019945638	-0.413989
H	 0.3206067475	 2.1945479261	-0.0521032918	 0.114462
H	-1.3890543038	 1.7699989701	-0.1623348241	 0.116095
H	-0.5880242501	 1.8058641518	 1.4129568172	 0.11515
H	-0.9361764734	-0.5346519822	 0.5994579302	 0.077334
H	-0.3771018856	-0.9385871363	-1.883864912	 0.096176
H	 1.9249756718	-0.1893173123	-2.618837227	 0.125498
H	 1.9317128445	 1.0946149552	-1.3277249797	 0.109942
H	 3.239039223	-4.2861197427	-1.2242116386	 0.180432
H	 1.0220919763	-1.3582925947	 1.44021087	 0.081184
H	 2.5202949638	 1.2699308436	 0.8905441279	 0.113731
H	 1.8104058416	 0.792954366	 2.4364206632	 0.114567
H	 3.1492190885	-0.1381839633	 1.7513446187	 0.124261
