12
gdb 21471	8.21766	1.28138	1.11324	5.4837	58.66	-0.2524	-0.0103	0.242	978.2787	0.086132	-410.854897	-410.848251	-410.847307	-410.886648	23.069	
N	-0.0904393665	 1.2413981288	 0.1810002018	-0.421543
C	-0.0325496504	 0.0061959802	-0.0456363717	 0.117567
O	-1.167906886	-0.7371198783	 0.1342846064	-0.201754
C	-1.070170062	-2.0790162126	 0.0749044559	 0.462349
N	 0.066971409	-2.7506116622	 0.1661605885	-0.310769
N	-0.3796004062	-4.0322946373	 0.0621344875	-0.184505
C	-1.7172918404	-4.0517391494	-0.0668219105	 0.034495
N	-2.1952476442	-2.8212381159	-0.0656505387	-0.317088
H	 0.8099839969	 1.6714026277	-0.0224383705	 0.237893
H	 0.8178109064	-0.5849405363	-0.3911954219	 0.136542
H	 0.2770300014	-4.7938543078	 0.1047564433	 0.28837
H	-2.2931287981	-4.9601883068	-0.15773889	 0.158443
