22
gdb 22588	3.50838	0.97761	0.83247	0.9052	86.31	-0.237	0.015	0.252	1441.6607	0.195163	-404.342142	-404.333041	-404.332097	-404.375738	35.551	
C	 0.0160333094	 1.5765343139	-0.0033359293	-0.404564
C	 0.0099375159	 0.044989255	-0.0028024401	 0.051955
C	 0.6868986905	-0.5283450452	-1.2592250806	-0.191829
C	 0.677123933	-2.0685346488	-1.266263711	-0.286016
C	 1.2518402142	-2.6207031658	 0.0125801635	 0.389085
C	 0.6837028722	-2.0626239494	 1.2929794395	-0.311049
C	 0.6796676992	-0.5209296837	 1.2603718114	-0.192088
N	 2.1793178159	-3.4921215898	-0.0990984977	-0.200052
O	 2.6473195831	-3.9534149073	 1.1464748137	-0.399617
H	 1.0415903963	 1.9645095668	 0.0015280291	 0.113875
H	-0.4861138588	 1.9767972209	-0.8904364224	 0.110232
H	-0.4937167743	 1.9763956351	 0.8797346216	 0.11035
H	-1.038332516	-0.2924964391	-0.0056467761	 0.066621
H	 0.1909901887	-0.1523906887	-2.1616641278	 0.092161
H	 1.7257241785	-0.1727213393	-1.3000012317	 0.099379
H	-0.3634992586	-2.4128417258	-1.3612632994	 0.103198
H	 1.2317771061	-2.4704439321	-2.1177580441	 0.111992
H	-0.3514145214	-2.420042193	 1.3926518513	 0.108747
H	 1.2398311768	-2.4376456383	 2.1520700545	 0.130256
H	 1.7161111557	-0.1593090132	 1.305742085	 0.101048
H	 0.1775331969	-0.1391042875	 2.156843071	 0.092714
H	 3.3353350367	-4.5713930246	 0.8796693194	 0.303603
