15
gdb 28246	4.80325	1.28203	1.02697	0.9832	68.11	-0.1772	0.0407	0.2179	1102.6181	0.115151	-453.957801	-453.950378	-453.949433	-453.989919	27.71	
N	 0.1200146104	 1.3170205808	 0.0725211652	-0.586097
C	-0.0504383678	-0.0489338191	 0.0169603567	 0.404868
N	-1.1514312594	-0.7320183869	 0.0227976894	-0.405057
C	-0.6953680389	-2.0559241367	 0.0973969126	 0.131017
C	 0.6353257184	-2.0524497057	 0.104561341	 0.41177
O	 1.3229875209	-3.2030361691	 0.0807307547	-0.291152
C	 0.2347348403	-4.1991596874	 0.2022831906	-0.092232
C	-1.161142853	-3.4788184348	 0.040917763	-0.369105
O	 1.1250766439	-0.7897613502	 0.0592685665	-0.233424
H	 0.9067744075	 1.6553664703	-0.4656519941	 0.262323
H	-0.7363311066	 1.8035748953	-0.1541338121	 0.26909
H	 0.4201235719	-4.9568067081	-0.5599427308	 0.129529
H	 0.3356536488	-4.6493258973	 1.1928604717	 0.129807
H	-1.839903057	-3.778827995	 0.8463446171	 0.1207
H	-1.6455882294	-3.7414003761	-0.9080474514	 0.117963
