17
gdb 90700	3.41518	1.32227	1.05261	2.876	74.71	-0.2375	-0.0488	0.1887	1111.987	0.136932	-421.844404	-421.836796	-421.835851	-421.876925	29.401	
O	 0.5763533807	 0.9810193245	-0.481197895	-0.422577
C	 0.1257048499	-0.1865589295	 0.148248235	 0.148491
C	 0.046808534	-0.2066318155	 1.700695716	-0.277374
C	-1.4306996609	-0.6944981273	 1.6239133583	-0.14613
C	-1.4253300954	-0.5171727937	 0.0859351606	-0.120867
C	-1.7726900708	-1.8692751335	-0.4579690487	-0.060901
C	-1.8828770287	-2.7975571134	 0.504409631	-0.184692
C	-1.6484693362	-2.1973096051	 1.8426761956	 0.374418
O	-1.6095089864	-2.7723137937	 2.9061840808	-0.335864
H	 0.127979865	 1.7355604018	-0.0839743742	 0.281264
H	 0.729376308	-0.9968924318	-0.266768132	 0.09993
H	 0.7477011296	-0.8554429052	 2.2305151142	 0.123796
H	 0.1305201699	 0.8022653966	 2.1161510595	 0.103159
H	-2.1487768698	-0.1221088077	 2.2132572485	 0.10072
H	-2.006584393	 0.3034430035	-0.3428444718	 0.079794
H	-1.8601771575	-2.06079743	-1.5229091987	 0.119875
H	-2.0809521687	-3.8537191599	 0.3723273009	 0.116959
