16
gdb 97025	2.3634	1.51867	0.99641	3.6717	78.79	-0.2356	-0.0132	0.2224	1176.5521	0.123245	-396.904636	-396.895616	-396.894672	-396.939051	32.045	
C	-0.0204672214	 1.4369604023	-0.0109290446	-0.343183
N	-0.0442880759	-0.0170265073	 0.0077222381	-0.300832
C	 0.5366705676	-0.6063280745	 0.9605742619	 0.406338
N	 1.2420472315	-0.0836855287	 2.0487759263	-0.357252
C	 1.7089848207	-1.133356429	 2.8255480189	 0.067472
N	 1.4403804531	-2.3104807999	 2.4157841077	-0.237687
C	 0.6538787287	-2.1316839645	 1.1674569824	-0.256935
C	-0.6389455722	-2.8001612772	 1.2382576157	 0.381999
C	-1.7061674689	-3.3462261	 1.298405718	-0.469388
H	 0.9997168392	 1.8457714262	 0.0660655405	 0.105032
H	-0.4505940972	 1.7959388599	-0.9486608713	 0.133634
H	-0.6155499718	 1.8653186679	 0.8098297972	 0.116515
H	 1.3157606812	 0.8920531278	 2.2779686692	 0.267694
H	 2.2797468145	-0.9198197116	 3.7239900905	 0.140153
H	 1.2321913256	-2.5544665802	 0.3352838797	 0.146047
H	-2.6498826346	-3.830545331	 1.3463148097	 0.200393
