17
gdb 18703	3.30818	2.28935	1.56833	1.9667	68.07	-0.244	0.0264	0.2704	835.2929	0.143934	-363.861954	-363.855039	-363.854094	-363.89296	26.939	
C	 0.2123037076	 1.5241266972	-0.0615582853	-0.374863
C	-0.0107216259	 0.0111672255	 0.0249568164	 0.023867
N	 0.34987159	-0.6016344734	-1.2535100581	-0.275644
C	 0.9982528961	-1.6839697394	-1.2863385759	 0.118772
O	 1.5052000416	-2.4320456116	-0.2732516627	-0.224143
C	 1.4031674206	-1.9019768665	 1.030058752	 0.105263
C	 2.1732757444	-0.6539227603	 1.3571633131	-0.321084
C	 0.6608336738	-0.6186299416	 1.2395052616	-0.070414
H	 1.2757617677	 1.7532179667	-0.179827236	 0.116653
H	-0.3220046744	 1.9319881818	-0.9234279052	 0.125508
H	-0.1458082618	 2.02089078	 0.8460738418	 0.106515
H	-1.0911435913	-0.1574864583	 0.1391131099	 0.093605
H	 1.2345394752	-2.1614743729	-2.2354916117	 0.123573
H	 1.3398048947	-2.7105078825	 1.7482260408	 0.109573
H	 2.624998825	-0.5659835505	 2.3387505395	 0.119013
H	 2.7524070215	-0.2168521897	 0.5500989513	 0.131183
H	 0.1056703952	-0.5240852744	 2.1682155886	 0.092624
