17
gdb 84626	2.33471	1.83591	1.47866	2.2932	72.76	-0.2378	-0.0229	0.2149	964.8824	0.136238	-421.823859	-421.816338	-421.815394	-421.855706	29.351	
C	-0.1495968425	 1.5500940859	 0.0200094784	-0.405274
C	 0.0180010085	 0.0217226273	 0.0117068673	-0.048965
C	 0.7796099193	-0.4647744903	-1.2098383426	-0.068347
C	 1.8975093512	-1.1817340917	-1.0728905041	-0.071507
C	 2.3075105603	-1.5296388589	 0.3446369842	-0.085782
O	 1.1108726285	-1.8812944702	 1.1029551387	-0.295167
C	 0.7820057059	-0.4703771781	 1.2585734127	-0.046121
C	 2.2974792049	-0.2003008245	 1.1284619594	 0.436573
O	 3.0866412075	 0.5865191111	 1.5482262949	-0.310971
H	 0.8212213595	 2.0546010326	 0.0438785307	 0.139923
H	-0.6837339873	 1.8863101174	-0.8738173668	 0.122015
H	-0.7231288314	 1.8746799391	 0.8944079952	 0.122175
H	-0.9820756886	-0.435343586	 0.0194959467	 0.096083
H	 0.3895681672	-0.1992950158	-2.1888504051	 0.10346
H	 2.5012453146	-1.5083220568	-1.9121561207	 0.107666
H	 3.114923168	-2.2546828287	 0.4485055869	 0.102826
H	 0.2774064043	-0.2504154624	 2.2030487443	 0.101413
