18
gdb 31015	3.11699	1.17419	0.8844	1.7384	76.19	-0.2212	0.009	0.2301	1314.2827	0.146755	-439.133624	-439.124205	-439.123261	-439.168203	33.481	
C	 0.1103629586	 1.4532700705	 0.1208693923	-0.49011
C	-0.0610620038	-0.0209956254	 0.0491195689	 0.365808
N	-1.1447866526	-0.7158538775	 0.1827620606	-0.345419
C	-0.7425334067	-2.0423519013	 0.0227918238	 0.10992
C	-1.732810786	-3.1661371625	 0.1157519378	-0.176951
O	-1.4184471635	-4.2716553696	-0.723473063	-0.406815
C	 0.5967517343	-2.0768851093	-0.2074005677	 0.262158
C	 1.6000072868	-3.1465255561	-0.4380818661	-0.506807
O	 1.0424283444	-0.7748411408	-0.195476969	-0.207435
H	 0.806216888	 1.7316462168	 0.9193256445	 0.144378
H	 0.5113005324	 1.8511096936	-0.8173183006	 0.14347
H	-0.8585531665	 1.9127734657	 0.3173055485	 0.155772
H	-1.7646240276	-3.5779151447	 1.1312469248	 0.125225
H	-2.7321983996	-2.7602385568	-0.0951270048	 0.114292
H	-1.3932336717	-3.9433764731	-1.6287075742	 0.282775
H	 2.1544623347	-2.9811086819	-1.3689126323	 0.133607
H	 2.3342181711	-3.1909467484	 0.3749127467	 0.136462
H	 1.0848780278	-4.1060083691	-0.5005714702	 0.15967
