12
gdb 21544	3.58831	1.98716	1.28078	4.0659	68.27	-0.2154	-0.0367	0.1786	868.1289	0.08386	-377.476913	-377.469891	-377.468947	-377.507994	26.201	
N	 0.0356913448	 1.412445769	 0.1677108879	-0.617253
C	 0.0223836168	 0.0315253327	 0.0412015801	 0.05352
C	-1.0577769651	-0.8174229176	 0.0053541183	 0.269474
O	-0.613635897	-2.1094965354	-0.0402980629	-0.217582
N	 0.7585632025	-2.1123358155	-0.0466456106	-0.121964
C	 1.1331022683	-0.8565327534	 0.0065028363	-0.025278
C	-2.4346817808	-0.5570907501	 0.0099422	 0.205522
C	-3.6096124279	-0.2866585128	 0.0080930421	-0.394777
H	 0.7960369733	 1.8682885181	-0.3169514214	 0.256472
H	-0.8496264416	 1.8460364775	-0.0582675147	 0.259217
H	 2.1868990759	-0.6151424546	 0.0188245119	 0.131424
H	-4.6478532293	-0.063127288	 0.0141693431	 0.201225
