16
gdb 53367	3.34408	0.91473	0.8389	5.1321	73.54	-0.2623	0.0237	0.286	1416.7393	0.124744	-437.910868	-437.90203	-437.901086	-437.946391	30.62	
C	-0.149651152	 1.4450262548	 0.0565549665	-0.497231
C	-0.0557620615	-0.006307362	 0.0040052527	 0.028014
C	 0.0216971451	-1.2075022873	-0.0346737657	 0.120972
C	 0.0955776723	-2.6676925716	-0.0893254726	-0.191484
C	 0.7349869338	-3.3185126964	 1.170035634	-0.083933
O	-0.3670971785	-3.6775382138	 2.0026462147	-0.232889
C	-1.5171379066	-3.7039859462	 1.2627527239	 0.478444
O	-2.5831152351	-4.0278440601	 1.70093192	-0.384163
N	-1.2081334757	-3.3249490919	-0.0338878236	-0.3493
H	 0.4890933011	 1.8533848046	 0.8469718864	 0.156283
H	 0.1594811485	 1.89831886	-0.8913102797	 0.153715
H	-1.1768504178	 1.7650197749	 0.2614695438	 0.158159
H	 0.6434353203	-2.9757400661	-0.986323701	 0.120281
H	 1.2903598693	-4.2221436648	 0.8963707884	 0.122144
H	 1.3847419221	-2.6335266858	 1.7145628165	 0.13718
H	-1.9735030152	-2.9680587884	-0.5849566544	 0.263806
