18
gdb 44861	3.27331	1.6464	1.49786	3.7037	73.87	-0.2313	0.0274	0.2587	933.0708	0.152232	-401.976199	-401.96982	-401.968876	-402.006633	27.379	
O	 0.0122464397	 0.0097812551	 0.1491274362	-0.384819
C	 0.0108446826	 1.209266659	 0.0062212556	 0.418172
N	-1.1034896173	 2.0374509811	-0.0715273378	-0.297119
C	-0.6447064291	 3.4390833439	 0.0158969659	-0.033822
C	 0.5978785853	 3.3197093009	-0.8911179984	-0.241135
C	 1.211541828	 2.1845010505	-0.0486909853	-0.153646
C	 1.2029220379	 2.7729020034	 1.3817814716	-0.015731
C	 1.3081181638	 4.2646037953	 1.5959258696	-0.330862
C	-0.049968827	 3.6301247529	 1.4248796953	-0.022932
H	-1.9634264361	 1.7286722238	 0.3581617168	 0.244554
H	-1.4180308942	 4.1415727215	-0.2955441911	 0.07867
H	 0.3247384157	 2.9997373113	-1.8977203988	 0.116014
H	 1.2035900132	 4.2221565974	-0.956035977	 0.108362
H	 2.1395934991	 1.7248340925	-0.382294752	 0.085085
H	 1.4597018694	 2.1064327392	 2.1965395736	 0.104967
H	 1.5594736307	 4.569297345	 2.6069219356	 0.117379
H	 1.724915023	 4.9180565154	 0.8389367091	 0.117487
H	-0.7311706646	 3.595686372	 2.2680922112	 0.089377
