23
gdb 104343	3.02794	1.19905	1.05666	1.225	86.44	-0.235	0.0336	0.2686	1271.726	0.205852	-388.316115	-388.306614	-388.30567	-388.349843	37.072	
C	-0.1518250216	 1.5592508077	-0.097776444	-0.410278
C	 0.054877381	 0.0425812349	-0.0288048932	-0.190655
C	 0.7597884389	-0.4645784205	 1.2463181264	 0.353706
O	-0.0337951711	-0.1500775797	 2.3991624762	-0.473513
C	 0.8437260853	-1.9986906742	 1.2300869852	-0.212177
C	 1.4780167784	-2.5506054145	 2.5130387628	-0.260463
C	 2.7356285991	-1.8113747857	 2.8783040696	-0.034589
C	 3.045849379	-0.6181158674	 2.3762389793	-0.058959
C	 2.1788704088	 0.1256047612	 1.3930224601	-0.284483
H	 0.7959852178	 2.1064640119	-0.1251601081	 0.117229
H	-0.7117529429	 1.8317017948	-0.9972680936	 0.117188
H	-0.7281347944	 1.9190609009	 0.7615189331	 0.110116
H	-0.921602302	-0.453135651	-0.0799975033	 0.098432
H	 0.6249757037	-0.2915362807	-0.9048744	 0.089657
H	 0.0685680809	 0.787338583	 2.5886283993	 0.277144
H	-0.1622548921	-2.4104237182	 1.096552086	 0.096044
H	 1.4382532403	-2.3028921063	 0.3604969835	 0.094125
H	 0.7593956581	-2.4723967356	 3.3391227559	 0.124427
H	 1.6903899274	-3.6202318403	 2.3939481452	 0.093441
H	 3.4009312663	-2.2832421798	 3.5976112531	 0.079924
H	 3.97085005	-0.1280818126	 2.671811603	 0.078368
H	 2.6703442418	 0.1490411321	 0.4091285075	 0.104855
H	 2.1032467673	 1.1803624402	 1.694732576	 0.09046
