23
gdb 86080	2.34663	1.31246	1.04267	1.3773	88.12	-0.2318	0.0288	0.2606	1298.7589	0.20378	-388.319503	-388.309343	-388.308399	-388.353686	39.171	
C	-0.7936832453	 1.172609043	 0.0290225077	-0.424148
C	 0.1353325684	-0.0343069289	-0.0684968083	 0.01719
C	 1.3054032076	 0.1085268778	-1.0676136702	-0.32205
C	 2.364128731	-0.8222924706	-0.5121720995	 0.323748
C	 3.558597775	-1.2275726931	-1.3164265382	-0.491936
C	 2.0746177255	-1.16148529	 0.7448165398	-0.229125
C	 0.8030702366	-0.5120496906	 1.2554873792	 0.357606
C	 1.1227679736	 0.6049073409	 2.2594843208	-0.43883
O	-0.1061391297	-1.4438580595	 1.8560989182	-0.477972
H	-0.255908755	 2.0825436762	 0.3163270081	 0.109922
H	-1.2741944849	 1.367174343	-0.9357383443	 0.109404
H	-1.586054081	 0.9983808857	 0.763970772	 0.123584
H	-0.4581801178	-0.899779181	-0.384314611	 0.092048
H	 1.0142697988	-0.1427307318	-2.0951690833	 0.096828
H	 1.6808801418	 1.1429674119	-1.1029727967	 0.097539
H	 4.1393952903	-0.3512587222	-1.6324183888	 0.123797
H	 4.2218881329	-1.8893173646	-0.75279966	 0.121591
H	 3.2571608126	-1.7459181943	-2.2357618164	 0.125182
H	 2.6885511347	-1.7928130076	 1.3813408927	 0.074595
H	 1.7375230102	 1.3886317562	 1.8063205401	 0.118744
H	 0.2042937457	 1.0564923327	 2.6456608568	 0.121166
H	 1.6878933468	 0.2001571695	 3.1084303257	 0.100207
H	 0.2292723622	-1.6640463427	 2.7315800455	 0.270908
