19
gdb 40753	3.68747	1.138	1.00737	1.6889	74.98	-0.2441	0.0704	0.3145	1211.4089	0.159908	-422.959204	-422.951376	-422.950432	-422.992626	29.592	
C	 0.1151003497	 1.4769387336	-0.0548626354	-0.188236
O	 1.0115885177	 0.4156895844	-0.3842098654	-0.241598
C	-0.3237860558	 0.0761428265	 0.0077482629	 0.083464
C	-0.4786758392	-0.6528859968	 1.3112611852	-0.018333
C	-1.9389111351	-0.9044586515	 1.8231931187	-0.271401
C	-1.6546736526	-2.4218216709	 1.8576784162	 0.124878
O	-2.0156851006	-3.0805221238	 0.625512164	-0.293915
C	-0.6535516439	-3.0127340236	 0.1371994785	-0.084126
C	-0.2012823148	-2.1919280441	 1.354526348	-0.097646
H	 0.3403676779	 2.0093114853	 0.8688297977	 0.112087
H	-0.1941602192	 2.1060827241	-0.8884747645	 0.11551
H	-0.9442492985	-0.2846996668	-0.8143339012	 0.098858
H	 0.1296841956	-0.1450654154	 2.0644726453	 0.080214
H	-2.1449418808	-0.4536535736	 2.7972637018	 0.103582
H	-2.7408649574	-0.6372669163	 1.1302607092	 0.11139
H	-1.9450040807	-2.9976294349	 2.7404705772	 0.075153
H	-0.2014576683	-4.0116914847	 0.0875314095	 0.102005
H	-0.5836126186	-2.5485223006	-0.8531937084	 0.107608
H	 0.7000550245	-2.5145299709	 1.8727510307	 0.080506
