17
gdb 43479	2.31129	1.89674	1.15829	0.8519	74.64	-0.2535	-0.0063	0.2472	1041.8015	0.138974	-418.057186	-418.049788	-418.048844	-418.089654	28.481	
N	-0.05471578	 1.2465913895	 0.3176354796	-0.535244
C	 0.0165107514	 0.0132357549	 0.028468684	 0.376651
N	 1.1488040037	-0.7710466102	-0.2118929156	-0.358338
C	 0.9047012338	-2.0907189916	-0.5812852481	 0.403575
O	 1.7580044587	-2.90801543	-0.8242622738	-0.359222
C	-0.6076006245	-2.2693312352	-0.5949574555	-0.151918
C	-1.1812882892	-2.984543137	 0.6662946603	-0.229031
C	-1.6219072002	-1.604679204	 1.2345190672	-0.225473
C	-1.1723599702	-0.9121791231	-0.0965086376	-0.073788
H	 0.8682481708	 1.6807806928	 0.3783643903	 0.2099
H	 2.0941863313	-0.4215814526	-0.1473704849	 0.258457
H	-0.9261132659	-2.6617181673	-1.5616057581	 0.107058
H	-2.018076768	-3.6434456991	 0.4271187123	 0.115565
H	-0.456203498	-3.5512341279	 1.2540442672	 0.121817
H	-2.6868655834	-1.5087221771	 1.4507789653	 0.117067
H	-1.0640021651	-1.2686782305	 2.1109676581	 0.118373
H	-1.9762560553	-0.4457554915	-0.6636387409	 0.104551
