19
gdb 86267	1.84338	1.66072	1.15407	5.5538	76.2	-0.2732	0.031	0.3042	1156.8725	0.159074	-419.210758	-419.201429	-419.200485	-419.244484	35.225	
C	-0.0671148977	 1.6238566922	 0.0323690225	-0.410235
C	 0.0553729467	 0.1111818815	 0.0277208417	-0.001945
C	 1.1043279341	-0.5692493371	-0.8973886839	-0.27215
C	 1.4115828829	-1.5870096641	 0.2250045447	-0.039512
N	 2.8077611259	-1.854479292	 0.5156097948	-0.524309
C	 0.7608392465	-0.5710278627	 1.2490242204	 0.25009
O	 1.7564261745	 0.2311713291	 1.8155020548	-0.463951
C	-0.1138637276	-1.1449158829	 2.2795782342	 0.238206
N	-0.8175320597	-1.6253217762	 3.0615750721	-0.347768
H	 0.8922440773	 2.084487184	 0.2796502262	 0.135314
H	-0.3874996864	 1.9860385386	-0.9503253716	 0.114341
H	-0.8032143938	 1.9589238596	 0.7701908893	 0.129017
H	-0.9227286875	-0.3583911283	-0.1172528758	 0.091211
H	 0.76036659	-0.9697037174	-1.8527031918	 0.108647
H	 1.9613836906	 0.088917709	-1.0713015516	 0.111874
H	 0.7986106996	-2.4889183252	 0.1341937872	 0.092543
H	 2.9482707269	-2.7620887611	 0.9439950528	 0.250494
H	 3.3801938064	-1.8044519704	-0.3185471377	 0.248631
H	 2.5790591913	-0.2847782368	 1.6929161019	 0.289502
