19
gdb 6092	4.55695	0.99636	0.87476	2.4933	68.65	-0.2645	0.0587	0.3232	1347.2867	0.16393	-402.257141	-402.247431	-402.246487	-402.292437	34.368	
C	 0.0083080082	 1.4926715958	-0.0318801465	-0.393558
C	-0.0177078403	-0.0401859867	 0.0254940079	 0.013254
C	 0.7225964232	-0.5701245544	 1.2602164616	-0.381543
C	-1.4619296877	-0.5294204377	-0.0169199696	-0.039391
O	-1.4489755029	-1.9637460099	-0.1110024211	-0.264959
C	-2.666797021	-2.5567976785	-0.0735509698	 0.491698
N	-2.5226500931	-3.9171468696	-0.1203654538	-0.563881
O	-3.7188067547	-1.9692627804	 0.0193117658	-0.397133
H	 1.0379559865	 1.8628864103	-0.0311222111	 0.11598
H	-0.4845323442	 1.8717093556	-0.9332437165	 0.11495
H	-0.5002710543	 1.9282049555	 0.8362717486	 0.11795
H	 0.4828364824	-0.4292166545	-0.8715803146	 0.080766
H	 0.691098689	-1.6616958869	 1.3009702478	 0.123967
H	 1.771546248	-0.2572627055	 1.2518259499	 0.110217
H	 0.2678530771	-0.1852953665	 2.1811141822	 0.112357
H	-2.0117774629	-0.2323276455	 0.8831929995	 0.117816
H	-1.9972851159	-0.1203287081	-0.8804425359	 0.112067
H	-1.6445438759	-4.2977999704	-0.4299182402	 0.262167
H	-3.3574543514	-4.4404199627	-0.3209227944	 0.267278
