17
gdb 46491	4.11451	1.21799	1.04014	3.7401	78.82	-0.2327	-0.055	0.1777	1142.1273	0.136223	-421.835549	-421.827948	-421.827004	-421.867699	29.713	
O	-0.0256355575	-0.0320368973	 0.1714272052	-0.323524
C	-0.0080953647	 1.1633065135	-0.0408756876	 0.347857
C	-1.3018719537	 1.9774317709	-0.1121598859	-0.209327
O	-1.1805673807	 3.1344251954	-0.9264852595	-0.294299
C	-0.1217069208	 3.9706373296	-0.5636134729	 0.410319
C	-0.1560567387	 5.3223291365	-1.223553798	-0.319664
C	-0.4645848436	 5.2243015228	 0.2457583245	-0.323383
C	 1.1561345227	 3.2863219557	-0.319521715	-0.085712
C	 1.2255012417	 1.95701961	-0.1474510422	-0.205409
H	-2.0924090151	 1.3629784246	-0.5463808379	 0.137595
H	-1.5979085732	 2.2415941213	 0.9178388547	 0.114009
H	 0.7839511306	 5.7632039172	-1.5357607753	 0.123786
H	-0.9864256875	 5.480866833	-1.9016924698	 0.13906
H	-1.5021385877	 5.3096076297	 0.5467326764	 0.135428
H	 0.2583286854	 5.595753575	 0.9630694063	 0.123306
H	 2.0483559261	 3.9066460092	-0.2836595978	 0.116845
H	 2.1651360268	 1.4351441027	-0.0023244952	 0.113114
