16
gdb 106033	2.75195	1.5843	1.2446	3.0161	68.01	-0.2454	-0.0053	0.2401	1015.5282	0.124395	-437.823964	-437.816216	-437.815272	-437.856956	28.882	
O	 0.1508038673	 1.3593351923	 0.4298953819	-0.40979
C	-0.0059785923	 0.0367758526	-0.0590119254	-0.208142
C	-1.4391532868	-0.4088261757	-0.0421354118	 0.166823
C	-2.1985480831	-0.8847197796	 1.2324424704	-0.118233
C	-3.6808034744	-0.6871093503	 0.9264033413	-0.198772
N	-3.4028276636	-1.1859158459	-0.4903239404	-0.225197
C	-2.0955771306	-1.7855770546	 0.0601900854	-0.084076
C	-2.546005578	-0.0675915845	-0.979574791	 0.383423
O	-2.7152628533	 0.6919364869	-1.8814487542	-0.323612
H	-0.2985402789	 1.9495793162	-0.1847512879	 0.297094
H	 0.3948843946	-0.0631237861	-1.0784154836	 0.111426
H	 0.5975531512	-0.6042167964	 0.5923321638	 0.118266
H	-1.6735066906	-0.9306832253	 2.1793256388	 0.113882
H	-4.324127223	-1.3984961321	 1.4488825215	 0.126106
H	-4.1135989013	 0.3178522293	 0.9693458286	 0.123711
H	-1.7123469271	-2.7695750267	-0.1628112674	 0.12709
