20
gdb 82299	2.47547	1.65414	1.33042	1.2497	73.49	-0.2353	0.0591	0.2944	1042.2961	0.170784	-440.258505	-440.24985	-440.248905	-440.291045	34.581	
C	-0.113109148	 1.5866424036	-0.027639439	-0.458486
C	 0.0587911874	 0.0769362642	-0.0228767284	 0.370672
O	-1.2540883852	-0.4857492945	-0.0508362536	-0.478097
C	 0.8929504954	-0.4914811673	-1.1855297704	-0.218753
N	 1.234661942	-1.8786138922	-0.7753914467	-0.124943
C	 2.5061159785	-1.9686554586	-0.0459577296	-0.231799
C	 1.2445504392	-1.8673803472	 0.7213671348	-0.056685
C	 0.8027798902	-0.4991932523	 1.2245845869	 0.051003
O	 1.9388795488	 0.2623286209	 1.6147434087	-0.43114
H	 0.8548285613	 2.0896568657	 0.0378234202	 0.11784
H	-0.6092311059	 1.9076812355	-0.9476393679	 0.130708
H	-0.7411556986	 1.9008060619	 0.8128404766	 0.121228
H	-1.1668069242	-1.4195772213	-0.2750090925	 0.293158
H	 0.3070283994	-0.5162605953	-2.1086635677	 0.10955
H	 1.7899822535	 0.1134378293	-1.3609330418	 0.105155
H	 3.0111938367	-2.9280623737	-0.1186971156	 0.113307
H	 3.1603237606	-1.1017751257	-0.0496963573	 0.132412
H	 0.8325200584	-2.7487589749	 1.2029397693	 0.093266
H	 0.0895400802	-0.5946527888	 2.0525607581	 0.074741
H	 1.6233094403	 1.0903281708	 1.990398246	 0.286866
