17
gdb 55061	2.92191	1.17292	0.90748	3.631	75.24	-0.2436	0.0367	0.2803	1269.5125	0.134606	-417.980951	-417.971679	-417.970735	-418.015576	34.062	
N	-0.0106011222	 1.0376277119	-0.0296239338	-0.533377
C	-0.0871435864	-0.3391499502	 0.0145977127	 0.400832
O	 0.8040847623	-1.072064044	-0.3562355086	-0.364618
N	-1.297860331	-0.7922464538	 0.5645146896	-0.112668
C	-2.6023128233	-0.5097028607	-0.0228095154	-0.275879
C	-2.0606130546	-1.9051337874	 0.0383269141	 0.019246
C	-1.675132987	-2.63457372	-1.2443453111	-0.36909
C	-0.8775222715	-3.8309448159	-1.0018352329	 0.325323
C	-0.2627097336	-4.8411088664	-0.7921635534	-0.450078
H	 0.9226340221	 1.3969195247	-0.1567423484	 0.263739
H	-0.6035940931	 1.5645296482	 0.5919029842	 0.259135
H	-3.3818424679	-0.1872494651	 0.6628888333	 0.121667
H	-2.6163173224	-0.0231540964	-0.9961525037	 0.129993
H	-2.4485383019	-2.5631059256	 0.8130467561	 0.112239
H	-2.60345804	-2.9203738942	-1.7573439065	 0.131817
H	-1.1365564055	-1.956008809	-1.9131657581	 0.146722
H	 0.3113185559	-5.7154941061	-0.6105987481	 0.194995
