16
gdb 123481	5.43247	0.92149	0.84469	4.5777	71.35	-0.2592	-0.0341	0.2251	1329.5006	0.124306	-434.007912	-434.000152	-433.999208	-434.041331	28.146	
C	-0.1281170974	 1.6083004359	 0.1365351155	-0.276405
N	-0.2842890231	 0.2635735854	-0.396049097	-0.065617
C	-0.1655789936	-0.8290538924	 0.5692430841	-0.219714
C	-1.4924196747	-0.4445344371	 0.0155773754	-0.218738
C	 1.2968623737	 2.0424832414	 0.0289754801	 0.413519
C	 2.3744179916	 1.5322167735	-0.6278524896	-0.188999
N	 3.4304978468	 2.3729968809	-0.3679344025	-0.107531
N	 3.0833334729	 3.3225613993	 0.371657788	-0.015686
O	 1.6736170892	 3.1471835591	 0.6651642969	-0.224311
H	-0.7559568849	 2.2910916819	-0.450539847	 0.144117
H	-0.454830571	 1.7046040061	 1.1873420724	 0.116073
H	 0.3451145871	-1.7177201177	 0.211903574	 0.127556
H	 0.0365772078	-0.5713677466	 1.6073521041	 0.121444
H	-2.1808409393	 0.0685613125	 0.6849193398	 0.117669
H	-1.9674108545	-1.0463047001	-0.7531202931	 0.127821
H	 2.4630630893	 0.6587701979	-1.2479294912	 0.148801
