17
gdb 30222	3.5985	1.30813	1.02031	2.6158	75.95	-0.1931	0.0466	0.2397	1158.9229	0.137145	-418.006765	-417.99859	-417.997646	-418.039755	30.33	
C	-0.0958914545	 1.6402153197	 0.0484111596	-0.398848
C	 0.0500312254	 0.1228598402	 0.0557544979	-0.132741
C	 0.6513148892	-0.5464346845	-1.2514277775	-0.187588
N	 1.7975251384	-0.9695244328	-0.4177234085	-0.048375
C	 1.2699082848	-0.4833938933	 0.7405381359	 0.356643
N	 1.8768165177	-0.8926706102	 1.8199118625	-0.362421
C	 2.8842734757	-1.7151926366	 1.3107051389	-0.23129
C	 2.8194423986	-1.808440948	-0.0680602094	 0.290404
O	 3.5373881111	-2.4640497214	-1.0104498364	-0.433483
H	 0.8313261335	 2.1227010925	-0.2763243667	 0.124827
H	-0.9027534576	 1.9538302968	-0.6223846843	 0.116866
H	-0.3306340024	 2.0057584435	 1.0523901855	 0.137475
H	-0.8905834173	-0.350757246	 0.3546248289	 0.102134
H	 0.0705790533	-1.3825908716	-1.6482131782	 0.133362
H	 0.9266515666	 0.1382565893	-2.0575882722	 0.127422
H	 3.6122559512	-2.1777613339	 1.9608276125	 0.096202
H	 4.2359079564	-2.9579129938	-0.5693080784	 0.309411
