20
gdb 82591	2.17461	2.05969	1.55924	1.7348	77.01	-0.2221	0.0526	0.2747	966.8692	0.172739	-403.090768	-403.082992	-403.082048	-403.122556	31.186	
C	-0.3272909413	 1.5896062853	-0.033353666	-0.425688
C	 0.0359106765	 0.1122591131	 0.0197115165	 0.042955
C	 1.0454657453	-0.5198056566	-0.9612046393	-0.013967
C	 2.4137307952	 0.1834686083	-1.0672575695	-0.247584
C	 2.800295894	-0.5303241877	 0.2361126924	-0.0445
C	 2.219831958	 0.1244740949	 1.5074601036	 0.122211
O	 2.2379599262	 1.524686157	 1.6680029505	-0.4266
C	 0.8665039568	-0.5187562787	 1.1608953582	-0.057704
N	 1.5703554846	-1.4499835258	 0.1499962691	-0.170389
H	 0.5551734051	 2.2283399193	 0.0185300142	 0.139851
H	-0.8727777762	 1.814904528	-0.9569447259	 0.106875
H	-0.9765631672	 1.8586270946	 0.8068557414	 0.115266
H	-0.8823855593	-0.483721084	-0.0469562333	 0.082871
H	 0.6463833823	-0.9760747316	-1.8702087131	 0.068006
H	 2.9915811299	-0.1839128165	-1.9184873669	 0.104882
H	 2.4378173233	 1.27620718	-1.0655420731	 0.106697
H	 3.7900108219	-0.9884369162	 0.3046637605	 0.063895
H	 2.6314476757	-0.3770180952	 2.3947248059	 0.078053
H	 3.1066375506	 1.7848196206	 1.9905273143	 0.286676
H	 0.3135905385	-0.9654331987	 1.9902141406	 0.068193
