23
gdb 100099	3.17812	0.86553	0.82502	3.9206	78.41	-0.2425	0.052	0.2945	1528.6621	0.202659	-462.567209	-462.556058	-462.555113	-462.60345	41.741	
C	-0.051235342	 1.6274433708	 0.1063392246	-0.381625
C	 0.0100703352	 0.104247536	 0.1740429929	 0.140493
O	 0.515280162	-0.2311849755	 1.4552333258	-0.449063
C	-1.372966032	-0.5251391785	-0.0763863225	-0.232515
C	-1.3931158624	-2.0576658283	-0.2083101617	 0.348385
C	-0.6343734658	-2.5584882543	-1.4475184724	-0.425624
O	-0.7879793661	-2.5961315392	 0.9771015878	-0.47626
C	-2.8467129866	-2.5542547832	-0.2402762412	-0.113538
O	-2.7993773906	-3.9775173249	-0.1508598107	-0.436542
H	 0.9281377443	 2.0469142016	 0.351969618	 0.122027
H	-0.3365966606	 1.9688398564	-0.893627176	 0.101891
H	-0.7758019789	 2.013831778	 0.8307456321	 0.115173
H	 0.7041223166	-0.2426200566	-0.6111979775	 0.057029
H	 0.3452950622	-1.173916829	 1.5847106764	 0.293272
H	-2.0218815024	-0.2337617542	 0.7588912887	 0.100299
H	-1.8020971261	-0.0985492514	-0.9911831403	 0.091779
H	 0.4283832059	-2.3198893001	-1.3702108045	 0.128247
H	-0.7389207362	-3.6427251456	-1.5384961034	 0.128501
H	-1.028041853	-2.1014766751	-2.3616090855	 0.109671
H	-1.0498883492	-3.5249449715	 1.015498133	 0.288392
H	-3.3875412058	-2.1284885363	 0.615382808	 0.098388
H	-3.3437720462	-2.2308453428	-1.1663014359	 0.094365
H	-3.6701064223	-4.3015805761	 0.0935545943	 0.297255
