19
gdb 103249	3.18151	1.10359	1.05407	4.5905	76.82	-0.2366	-0.008	0.2286	1222.5375	0.157657	-423.011437	-423.002405	-423.001461	-423.045076	34.008	
C	-0.0528177142	 1.5780501778	-0.1225429241	-0.472332
C	 0.0153041765	 0.0606001987	-0.1006178001	 0.329631
C	-1.226941168	-0.5782555677	 0.495740006	-0.144322
O	-1.3275144235	-0.1829874119	 1.8559811125	-0.419203
C	 0.6734490768	-0.7688273881	-1.154334832	-0.119244
C	 1.9001329696	-0.0663031523	-1.7537568648	-0.380249
C	 2.5004334002	-0.0539957761	-0.3200584549	 0.404088
O	 3.5923464527	 0.2040424169	 0.1012801567	-0.316946
C	 1.288507015	-0.7058408155	 0.2752646904	-0.198475
H	 0.8773213603	 2.0415590329	-0.4553611309	 0.128037
H	-0.8562290547	 1.9154412638	-0.7883556773	 0.112746
H	-0.2723954228	 1.945753031	 0.8827475563	 0.14579
H	-2.1065688645	-0.2468297639	-0.0791541899	 0.092496
H	-1.1636471333	-1.6738600102	 0.4047603207	 0.086233
H	-2.185071423	-0.4624010996	 2.1893876323	 0.290713
H	 0.1875803164	-1.6277007806	-1.6009186618	 0.097422
H	 2.501542943	-0.7221847275	-2.3903298847	 0.131729
H	 1.7489130654	 0.8866203679	-2.2665889222	 0.121209
H	 1.2777354581	-1.4165265456	 1.0924572679	 0.110677
