15
gdb 30569	6.93271	0.77458	0.69975	2.0708	73.47	-0.2297	-0.0099	0.2198	1544.0868	0.112353	-453.961194	-453.95292	-453.951976	-453.996718	28.664	
C	-0.0401745671	 1.4008480033	-0.008912626	-0.317115
N	 0.0603447652	-0.0438445161	-0.0612573501	-0.199953
C	 0.5792311254	-0.6165953271	 0.9263111652	 0.099575
O	 0.6873003679	-1.9811642551	 0.9049330087	-0.2411
C	 1.2425040866	-2.6159408133	 1.9602125541	 0.367201
C	 1.4136537514	-3.957301254	 2.0747313712	-0.155213
O	 2.0095866525	-4.175934081	 3.2928988863	-0.135063
C	 2.1563287981	-2.9537283451	 3.8272171362	 0.095132
N	 1.7215821565	-1.9811281505	 3.0885461242	-0.338373
H	 0.4945987001	 1.832601695	-0.8621261273	 0.132029
H	-1.0907311553	 1.6950524924	-0.109583729	 0.132035
H	 0.3597826359	 1.8470427418	 0.9151776244	 0.103107
H	 0.9702445821	-0.152345261	 1.8347116653	 0.134721
H	 1.1976406655	-4.8117796728	 1.4614711323	 0.16099
H	 2.6128342652	-2.8928329065	 4.8022472644	 0.162026
