13
gdb 29179	2.32606	1.87995	1.04343	7.2772	62.33	-0.2267	-0.0346	0.1921	1037.8717	0.089404	-489.938109	-489.930294	-489.92935	-489.970628	28.313	
N	 0.1273790307	 1.4107140567	 0.0839503721	-0.601089
C	-0.0074597159	 0.0254955651	-0.0033644872	 0.268973
C	-1.0687227395	-0.7875631863	 0.0264632675	-0.09053
O	-0.6638089058	-2.1131322463	 0.0275160996	-0.221261
C	 0.7060450199	-2.1592276919	-0.0403347751	 0.515735
O	 1.3504416099	-3.1589797856	-0.0788386964	-0.345908
N	 1.1359691164	-0.8080829917	-0.0435339985	-0.222091
C	 2.4653442051	-0.3721126905	 0.0370922815	 0.163069
O	 3.4276535517	-1.0854273492	-0.0001776822	-0.259132
H	 0.5019430811	 1.8340992612	-0.7598240316	 0.26211
H	-0.7511039039	 1.8562761405	 0.3162466615	 0.263525
H	-2.1272955884	-0.6012358562	 0.0595663535	 0.154086
H	 2.5065435488	 0.7243701342	 0.1496861354	 0.11251
