24
gdb 120846	3.65367	0.60834	0.55625	1.299	88.13	-0.244	0.0796	0.3236	2108.1213	0.215888	-405.51591	-405.504869	-405.503925	-405.553439	38.813	
C	 0.1905225045	 1.4883072714	 0.3034953084	-0.382332
C	-0.0196754866	-0.0275173969	 0.3144795953	-0.157882
C	-1.3197282635	-0.4597005436	-0.3768446369	-0.17906
C	-1.5083784927	-1.9609908667	-0.3534674105	-0.020268
N	-2.0407984049	-2.554127551	 0.8859211652	-0.334749
C	-2.8228819107	-2.6579113629	-0.3570827106	-0.040267
C	-4.1534059159	-1.9543321154	-0.400950744	-0.055863
O	-5.1491537214	-2.8799412142	-0.0150243723	-0.234414
C	-6.4394074865	-2.3215677957	-0.0112908165	-0.223925
H	 1.124596477	 1.7657983535	 0.80195075	 0.111019
H	 0.231535914	 1.8766767598	-0.7205701119	 0.111228
H	-0.6271928466	 2.0044031822	 0.8188570364	 0.115133
H	 0.831809377	-0.5200512638	-0.1745339091	 0.088862
H	-0.035788191	-0.395117985	 1.3475204328	 0.110987
H	-2.1687555666	 0.0263187117	 0.1154196658	 0.100816
H	-1.3161777098	-0.1136609763	-1.4198992223	 0.091373
H	-0.7021341184	-2.5060019708	-0.8469004049	 0.077248
H	-1.5833763751	-3.436646863	 1.0955538469	 0.230182
H	-2.8510330673	-3.6282095594	-0.8510818446	 0.087333
H	-4.1482686044	-1.0871551001	 0.2758278923	 0.095135
H	-4.3551201582	-1.5836301108	-1.4221838885	 0.080651
H	-7.1366241895	-3.1077138128	 0.2891257238	 0.125271
H	-6.5219184113	-1.4836207123	 0.699381669	 0.103977
H	-6.7300046123	-1.9516925878	-1.0083995436	 0.099546
