23
gdb 89313	2.52768	1.50059	1.16284	1.3639	84.99	-0.2483	0.0796	0.328	1170.0943	0.205943	-388.295996	-388.28702	-388.286076	-388.328578	36.638	
C	-0.1047736178	 1.5368067113	 0.0203124296	-0.423162
C	 0.077001264	 0.0195789173	 0.023556213	 0.017967
C	 1.0262503977	-0.5321737962	-1.0902620137	-0.300814
C	 2.004479698	-1.3305813005	-0.2064466047	 0.424407
O	 2.9936895547	-2.0904698685	-0.8304211847	-0.487754
C	 2.2996050688	-0.320592488	 0.9458896376	-0.332748
C	 0.7945866762	-0.5786180018	 1.2711336575	 0.342432
C	 0.204672819	-0.2957458562	 2.6334807047	-0.500571
C	 1.0530285456	-2.0397557735	 0.7814326383	-0.299978
H	 0.8480057008	 2.0620954814	 0.1477797703	 0.113969
H	-0.5395202111	 1.8717238897	-0.9276318531	 0.113374
H	-0.7750856079	 1.8627282321	 0.8225913082	 0.114219
H	-0.9135668661	-0.443455484	-0.0660982649	 0.06577
H	 0.5178692028	-1.1716271021	-1.8179104956	 0.097672
H	 1.5330873571	 0.2712672974	-1.6391013284	 0.081603
H	 3.4482782252	-1.529950076	-1.4683951218	 0.27559
H	 2.9656698607	-0.7477551194	 1.6992844173	 0.095662
H	 2.6193909585	 0.6937081521	 0.6881456202	 0.079797
H	 0.2164111215	 0.7751928981	 2.8638294275	 0.116403
H	-0.8369783985	-0.6348293982	 2.6903557664	 0.112316
H	 0.7647428944	-0.8091447774	 3.4218447929	 0.112999
H	 0.2114174769	-2.6067859284	 0.3708305834	 0.084247
H	 1.5960217096	-2.6381465892	 1.5168868599	 0.096601
