24
gdb 117490	1.78721	1.16736	0.84784	0.6316	89.63	-0.2363	0.0384	0.2746	1555.4646	0.214216	-405.567101	-405.555296	-405.554352	-405.60511	41.235	
C	 0.1050232886	 1.4613379749	-0.1085282384	-0.391161
C	 0.0757784787	-0.0529761241	-0.0064188435	-0.025242
O	 0.6348618576	-0.5758246929	-1.2163190394	-0.262163
C	 0.7067555773	-1.9256395678	-1.3388273486	 0.41284
N	 0.2861882432	-2.6641874007	-0.3998373477	-0.318779
C	 0.3243621611	-4.1068353285	-0.4458263156	-0.329135
C	 1.3255426265	-2.2770903645	-2.6835175348	-0.055712
C	 0.4493453323	-1.758639383	-3.8378031831	-0.385317
C	 2.7615709988	-1.7319108249	-2.7808646505	-0.385324
H	 1.1296770182	 1.8257156576	-0.2273384934	 0.123963
H	-0.4823010356	 1.8071623638	-0.9642480869	 0.123965
H	-0.3150505627	 1.9050486346	 0.7992056974	 0.117301
H	 0.6567985422	-0.4174731989	 0.8476546507	 0.111257
H	-0.9431517215	-0.4358769036	 0.1162901412	 0.111248
H	-0.6926868777	-4.4992330328	-0.3248581363	 0.123649
H	 0.7473258346	-4.5502023468	-1.3578012198	 0.103556
H	 0.9046923911	-4.4801967767	 0.4067035625	 0.123654
H	 1.3711935241	-3.3666518337	-2.7558917655	 0.084727
H	 0.8844907315	-2.043238399	-4.80119714	 0.109973
H	-0.5620607679	-2.1740387539	-3.7874190503	 0.116307
H	 0.3700380301	-0.6691822151	-3.8034664127	 0.132056
H	 3.3930472325	-2.128380511	-1.9795605804	 0.116307
H	 3.21078254	-2.0162689262	-3.7378520027	 0.10998
H	 2.766662587	-0.641480067	-2.7078695121	 0.132051
