15
gdb 76080	2.23781	1.39701	1.22625	4.4852	66.64	-0.2535	-0.003	0.2504	1073.5136	0.112143	-453.970585	-453.961697	-453.960753	-454.004664	32.178	
N	 0.5834984815	 0.4969915631	-0.6809167513	-0.529284
C	-0.1593813801	 0.219092229	 0.4167462282	 0.4065
O	 0.0129140071	 0.7356793167	 1.5039482002	-0.367075
C	-1.259749896	-0.815465267	 0.2615314126	-0.145779
C	-1.8126694103	-1.3903175329	-1.0080854075	 0.064575
O	-1.2653339524	-0.9660549934	-2.2169696165	-0.404418
C	-0.9824173302	-2.2874291149	-0.0972997243	-0.245071
C	 0.3022764401	-2.711028143	-0.5730516987	 0.292857
N	 1.3113153406	-3.0836218438	-0.9992252794	-0.334337
H	 1.3166826132	 1.1801701786	-0.5864799817	 0.263783
H	 0.337352657	 0.1278782323	-1.5852801666	 0.276374
H	-1.9715339771	-0.7098455112	 1.0713645964	 0.137529
H	-2.8827368497	-1.5874357601	-1.0385652328	 0.124352
H	-1.1357251847	-1.7325512429	-2.787959614	 0.311351
H	-1.504991229	-3.0313575403	 0.4944782155	 0.148642
