14
gdb 46232	2.82623	1.37145	1.09078	5.7947	68.33	-0.2657	-0.064	0.2017	1090.3566	0.099109	-436.671717	-436.663698	-436.662754	-436.70494	28.766	
O	 0.0076910372	 0.0386848217	-0.1988286866	-0.277877
C	-0.0399926598	 1.2146057	-0.011861979	 0.346365
C	-1.1252131083	 2.2166766011	 0.4402512173	-0.344256
C	-0.0219898727	 3.3132588318	 0.5795559267	-0.342208
C	 0.9908799608	 2.3497188702	-0.0601123361	 0.350376
O	 2.3673484994	 2.2508909969	 0.2217175459	-0.245242
C	 2.0063622951	 2.6165570834	-1.1083804884	-0.218318
C	 2.2874868211	 1.6621640043	-2.1581936559	 0.331809
N	 2.5177741813	 0.9409138157	-3.0308455375	-0.317641
H	-1.8640471115	 2.4097575594	-0.3424100887	 0.148496
H	-1.6497322958	 1.9321840624	 1.3548113875	 0.148861
H	-0.1970176231	 4.2451971834	 0.0408828123	 0.128635
H	 0.2336076117	 3.5391408902	 1.6169093598	 0.141211
H	 2.2041335845	 3.6536862794	-1.3740043373	 0.149788
