18
gdb 51842	2.97536	1.04172	0.82794	4.56	73.05	-0.2288	-0.0316	0.1971	1359.4707	0.14711	-439.109932	-439.101045	-439.1001	-439.145006	31.647	
O	-0.0362564806	-0.0572271445	 0.0962482184	-0.238637
C	-0.036882164	 1.1244783283	-0.1377423878	 0.148761
C	 1.1895688146	 2.0093528241	-0.0619783861	-0.261681
C	 1.3593794232	 2.8705870869	-1.3337603859	-0.135166
N	 0.2844035862	 3.8610648055	-1.483956809	-0.296594
C	 0.8077355622	 5.1476330683	-0.972127728	-0.185693
C	 2.3147069513	 5.1561313079	-1.274471126	-0.325681
C	 2.6812351408	 3.6702289965	-1.2511655014	 0.403663
O	 3.7811592499	 3.1932395003	-1.1664134751	-0.308806
H	-0.9652743088	 1.6575081085	-0.4354806806	 0.092111
H	 1.0667041646	 2.6768978255	 0.8026380636	 0.120659
H	 2.0764260016	 1.3928399873	 0.1026454377	 0.141771
H	 1.402369131	 2.2071526726	-2.2042499666	 0.112507
H	 0.0568907454	 3.9648142886	-2.4662168121	 0.227574
H	 0.2623120669	 5.9776658042	-1.424748741	 0.11693
H	 0.636722911	 5.1998565963	 0.109915446	 0.118867
H	 2.5138165979	 5.534891795	-2.2854690933	 0.1332
H	 2.9368661568	 5.7248441986	-0.5802342728	 0.136216
