15
gdb 66887	2.66949	2.09743	1.46693	3.1831	68.46	-0.2465	-0.0402	0.2062	889.8403	0.11319	-416.787261	-416.780191	-416.779247	-416.818683	27.139	
C	 0.029325855	 1.5261051211	 0.0866740886	-0.505774
C	 0.0543827998	 0.0306346043	-0.0165501789	 0.148689
C	-0.9623348296	-0.8881323622	 0.7551684503	-0.055077
N	-1.5206267219	-2.0550692958	 0.0827977393	-0.185934
C	-0.5121372132	-2.6508253558	-0.4129093929	 0.001248
N	 0.7756857213	-2.0183069588	-0.1842530998	-0.22527
C	 0.4835490082	-1.0844316239	 0.9588474458	-0.079339
C	 0.7061326493	-0.7854561197	-1.0648557833	 0.387181
O	 1.1699308202	-0.6161244976	-2.1460269649	-0.301869
H	 1.0202287695	 1.9489094889	-0.1051324579	 0.143791
H	-0.6651475432	 1.950797803	-0.6447653966	 0.149339
H	-0.2937978834	 1.847968263	 1.0810244493	 0.130117
H	-1.5965287312	-0.3659408506	 1.4606722703	 0.119625
H	-0.5610385915	-3.532574213	-1.0405194757	 0.145941
H	 1.1204076709	-1.0391323628	 1.8323238463	 0.127332
