17
gdb 50083	3.34443	1.02518	0.92572	2.677	69.7	-0.254	-0.0512	0.2029	1277.8845	0.134333	-458.914511	-458.905903	-458.904959	-458.949442	29.836	
O	-0.0320886352	 0.2079901338	-0.6685246527	-0.246152
C	 0.3017469589	 0.9515267822	 0.218625118	 0.142779
C	 1.3448684679	 2.0188425679	 0.0998123999	-0.057158
O	 2.2839043132	 1.9205672478	-0.9661706909	-0.227896
C	 1.3513468171	 2.9855609128	-1.0381398067	 0.051075
C	 0.3587667443	 2.9677138879	-2.1631024581	-0.080736
C	-0.7261432997	 4.0706960588	-2.1140100733	-0.086012
O	-0.2028948252	 4.7110392402	-3.2924992898	-0.269353
C	 0.8107770369	 3.6982595507	-3.4527023607	-0.08355
H	-0.1705195518	 0.905249438	 1.22544591	 0.086533
H	 1.7564273066	 2.3588789877	 1.0514127003	 0.108893
H	 1.7768029535	 3.9673688076	-0.8125526111	 0.109558
H	-0.0091738226	 1.9550909456	-2.3181515071	 0.126087
H	-1.7546397156	 3.7170403942	-2.2549277298	 0.109408
H	-0.6970335483	 4.7327282812	-1.2379366202	 0.098648
H	 1.8237084471	 4.1201289492	-3.4332643023	 0.10684
H	 0.6810344228	 3.1261216847	-4.3786954853	 0.111035
