20
gdb 97055	2.98943	1.17387	1.04664	1.8378	78.35	-0.2488	0.0294	0.2782	1264.2334	0.168568	-440.313596	-440.303785	-440.302841	-440.3487	35.463	
C	-0.2614150751	 1.4212421144	-0.1961349169	-0.334613
N	-0.0377699049	-0.0089713593	-0.0591351385	-0.326924
C	 0.6496611957	-0.6184206634	-0.9154483085	 0.394938
C	 0.9865599543	-2.0942525422	-0.8953256031	-0.197681
O	 1.5347174799	-2.3422433748	-2.1779068392	-0.28216
C	 2.0084184031	-1.1076862176	-2.695155814	 0.431199
C	 3.4844141986	-0.8965054046	-2.3587033555	-0.411184
C	 1.7143545515	-1.0581743587	-4.1842081564	-0.414639
O	 1.2306395599	-0.0881814484	-2.0336289943	-0.269004
H	 0.3004714664	 1.8903289247	-1.0118655192	 0.120637
H	-1.3300982363	 1.6042702444	-0.358525556	 0.126591
H	 0.0035571919	 1.9145312371	 0.7454895262	 0.124505
H	 1.6998144112	-2.3186004699	-0.0888903099	 0.12253
H	 0.0982355939	-2.7136205015	-0.7531590558	 0.141662
H	 4.0898395397	-1.6697333015	-2.838705107	 0.129446
H	 3.8191019126	 0.0838545955	-2.7075676183	 0.128893
H	 3.6425379899	-0.9506470235	-1.2781096109	 0.124376
H	 0.6425518325	-1.1829185517	-4.3504953239	 0.131966
H	 2.0353922888	-0.1024544645	-4.605553755	 0.128041
H	 2.2480341961	-1.8651842845	-4.6925521639	 0.13142
