17
gdb 47765	2.03389	1.70492	1.23252	3.005	74.03	-0.237	-0.0307	0.2064	1072.7167	0.135508	-421.809145	-421.80083	-421.799886	-421.842214	31.33	
O	 0.0555754469	-0.0355525637	 0.0423296416	-0.299439
C	-0.0217429316	 1.1653950021	-0.0013487074	 0.393787
C	-1.3252924911	 1.9410283053	-0.0435162826	-0.313976
C	-1.2737896357	 3.0697150132	-1.0923027649	-0.213099
C	 0.0112135616	 3.8794410624	-0.9358804961	-0.076337
O	 1.1573305933	 3.0398194008	-1.0479015463	-0.244912
C	 1.251159605	 2.0526293077	-0.0259706505	-0.157034
C	 1.4883997221	 2.6181027565	 1.3056677863	 0.323016
C	 1.6517337784	 3.074554448	 2.406216788	-0.467546
H	-2.1457584995	 1.2407951725	-0.2154092197	 0.126165
H	-1.4610456952	 2.3820108325	 0.9538604147	 0.137158
H	-1.3010575712	 2.6387092703	-2.0993494436	 0.119709
H	-2.1473414176	 3.7231485694	-0.991423627	 0.106877
H	 0.1149128948	 4.6194668001	-1.7334146356	 0.116599
H	 0.0228848709	 4.410114007	 0.0278900113	 0.105432
H	 2.085949375	 1.4054752856	-0.30845526	 0.135547
H	 1.8168422241	 3.4735252703	 3.3770352819	 0.208052
