21
gdb 64489	2.58255	1.45066	1.19279	2.6669	74.6	-0.2443	0.0697	0.314	1135.4577	0.182728	-461.355094	-461.346184	-461.34524	-461.388064	34.787	
C	 0.3378283544	 1.6010582069	-0.0045929303	-0.417254
C	-0.0674313365	 0.1285432722	 0.0102948348	 0.326902
O	-1.4862983561	 0.0839831533	 0.0678845635	-0.466592
C	 0.3754566506	-0.5660968099	-1.2974154607	-0.121169
O	-0.2716051784	-1.8227432717	-1.4356543082	-0.257983
C	 0.3940400661	-2.9530204127	-0.8993238093	-0.070493
C	 1.0579637409	-2.7215000584	 0.4665560934	-0.10499
O	 0.2621567293	-1.948994867	 1.3392824772	-0.247214
C	 0.516551104	-0.5551720443	 1.2618036294	-0.103785
H	 1.4212982103	 1.7163148527	-0.1098136031	 0.111333
H	-0.1527053496	 2.1129946929	-0.8366675024	 0.127902
H	 0.0261461119	 2.0916485757	 0.922127019	 0.127669
H	-1.7223401983	-0.8295079204	-0.1409461644	 0.28713
H	 0.0350107974	 0.0406125906	-2.1424927242	 0.112316
H	 1.4686044116	-0.6585323317	-1.363483898	 0.089838
H	-0.3821475054	-3.7196967504	-0.8125452123	 0.117248
H	 1.1589201029	-3.3266063046	-1.6003841516	 0.091869
H	 1.2221297377	-3.698377173	 0.9374203423	 0.109733
H	 2.0460420632	-2.2527718872	 0.3434473939	 0.093779
H	 1.6016608656	-0.3684822061	 1.3265957117	 0.078938
H	 0.0359484084	-0.114870637	 2.1399920694	 0.114822
