16
gdb 81135	3.44502	1.13558	1.02209	5.4849	69.34	-0.2549	0.0314	0.2863	1166.9041	0.123127	-437.825788	-437.817562	-437.816618	-437.859085	30.571	
O	-0.0257174223	 1.4831073509	-0.0873591284	-0.430395
C	 0.0063598213	 0.0890219597	-0.0062073026	 0.073806
C	-0.1111834715	-0.6592516085	 1.3615480462	-0.002939
C	-1.5494034096	-0.1223679101	 1.5262616381	-0.268707
C	-1.3638669087	-0.625832184	 0.0708351011	 0.399553
C	-2.3715868875	-0.8273339199	-1.0349794544	-0.477752
C	-3.5782418381	-1.520436616	-0.587401733	 0.270598
N	-4.5340779251	-2.0584095473	-0.2255602953	-0.306426
O	-0.6445591997	-1.8071709244	 0.5918043055	-0.331881
H	 0.877098452	 1.8156497298	-0.0742829595	 0.29727
H	 0.7093058012	-0.3831515036	-0.7013645814	 0.0895
H	 0.6460539402	-0.872388687	 2.1145574479	 0.101791
H	-2.2058693447	-0.7384588509	 2.1405690644	 0.126787
H	-1.677997737	 0.949772282	 1.6757396814	 0.12066
H	-2.6497007507	 0.1526864296	-1.4395017553	 0.171796
H	-1.9056024099	-1.3970696303	-1.8468263245	 0.16634
