22
gdb 111493	2.62828	1.35027	1.09223	2.2023	80.58	-0.2238	0.0708	0.2946	1196.9228	0.19564	-404.322625	-404.313718	-404.312774	-404.355851	34.69	
C	 0.8994092592	 1.4122486074	-0.5234781388	-0.414828
C	 0.2049999458	 0.1459802939	 0.0016568775	-0.012257
C	 0.1070252918	-1.0093199355	-1.0401036278	-0.174885
N	 1.0303906066	-2.1005164049	-0.6696448184	-0.096532
C	 2.4254380307	-1.671134382	-0.5019297387	-0.253806
C	 1.5315532384	-1.7977744687	 0.6804407803	-0.047179
C	 0.8641579686	-0.5482988012	 1.239033356	 0.013374
C	 1.7966892666	 0.3083409115	 2.086521463	-0.096554
O	 1.0272785034	 1.3507040698	 2.6759740587	-0.419699
H	 1.9201334599	 1.2342821542	-0.8758002067	 0.113201
H	 0.335453896	 1.8189091948	-1.369637616	 0.109843
H	 0.9381454003	 2.1772936049	 0.2563058366	 0.131555
H	-0.8064582824	 0.4503389278	 0.2853829291	 0.085738
H	-0.9010981293	-1.4372015428	-1.0434050453	 0.10418
H	 0.3198651047	-0.6702091819	-2.0599215907	 0.101067
H	 3.1605459079	-2.4453899229	-0.7046948849	 0.112647
H	 2.7169867908	-0.6815521185	-0.8394851477	 0.109919
H	 1.6541709477	-2.6457304094	 1.3500829284	 0.086192
H	 0.059938061	-0.8794043299	 1.9078664275	 0.085527
H	 2.2600867949	-0.3224936246	 2.8616615645	 0.086807
H	 2.6113024349	 0.7142043425	 1.4690497166	 0.08865
H	 1.6139318624	 1.8900535855	 3.2143590169	 0.28704
