23
gdb 123055	6.3209	0.50411	0.48808	2.1844	83.43	-0.2428	0.0778	0.3206	2275.9899	0.204508	-425.392544	-425.382003	-425.381058	-425.430167	36.146	
C	-0.1099502766	 1.3890681614	-0.0322666101	-0.22751
O	-0.0869827385	-0.0167835797	-0.0577056844	-0.230624
C	 0.6758572709	-0.5354367738	-1.1248177899	-0.050013
C	 0.6274017315	-2.0560955087	-1.0639593508	-0.19842
C	 1.4327429978	-2.7226361865	-2.1845173449	-0.213726
C	 1.3702819089	-4.2446580415	-2.1374679947	-0.020897
C	 0.0530490275	-4.9214776063	-2.5868119156	-0.074034
O	 0.7240045229	-5.638170826	-3.6425412463	-0.27183
C	 1.9868155534	-5.0200012413	-3.3239678145	-0.091326
H	 0.9000956306	 1.8141365219	 0.0848083459	 0.101819
H	-0.5510820228	 1.8087963028	-0.9507792339	 0.102239
H	-0.7204424615	 1.6924281866	 0.8218680074	 0.126373
H	 0.2788003568	-0.1764702984	-2.0911206261	 0.083163
H	 1.7201556766	-0.181014727	-1.0585630306	 0.082221
H	 1.0052138656	-2.3784268995	-0.0860308141	 0.106724
H	-0.4221222615	-2.3713336653	-1.1121053828	 0.110025
H	 1.0647017037	-2.3796602644	-3.1616908786	 0.099862
H	 2.4826209728	-2.4041607338	-2.1236288686	 0.097962
H	 1.7215341595	-4.6046346175	-1.1659395477	 0.078743
H	-0.4200637253	-5.6000352388	-1.8667259751	 0.100901
H	-0.7099158387	-4.2338870838	-2.9781720778	 0.09504
H	 2.3558528144	-4.3910784287	-4.1461842295	 0.094576
H	 2.755684392	-5.7616040219	-3.0743685471	 0.09873
