20
gdb 94222	3.2407	1.02746	0.95543	3.3225	78.9	-0.2576	0.0253	0.2829	1309.1298	0.169369	-403.154346	-403.144644	-403.1437	-403.189355	35.211	
C	-0.4466479544	 1.4059526779	-0.0419122064	-0.41193
C	 0.1967877168	 0.0352106852	-0.0464984267	 0.115706
O	 1.4793088368	 0.0198809723	-0.7111518667	-0.290001
C	 2.069277048	-0.7716717679	 0.3374896596	-0.106809
C	 0.8289765911	-0.5787819591	 1.245023759	 0.253584
C	 1.0586327897	 0.3904503934	 2.401458207	-0.466523
C	 0.1373500054	-1.8720383302	 1.7162356613	-0.411722
C	 0.9299977558	-2.6180243886	 2.6931226288	 0.268654
N	 1.5778155865	-3.1919080712	 3.4591433454	-0.311119
H	 0.1936842154	 2.153865319	 0.4311750726	 0.126214
H	-0.6325668731	 1.7221985378	-1.0731353486	 0.135032
H	-1.4088387642	 1.38089736	 0.4810366742	 0.117559
H	-0.4870440688	-0.6823235728	-0.5291386019	 0.065784
H	 2.2492157854	-1.8086423032	 0.0217716994	 0.10233
H	 3.0096810419	-0.3422770133	 0.6994662313	 0.112241
H	 1.5862574779	 1.2865559995	 2.0652075243	 0.132732
H	 0.1129594065	 0.7044382084	 2.8568849204	 0.119395
H	 1.6660931313	-0.0817361189	 3.180075726	 0.145405
H	-0.8354998958	-1.6366762856	 2.1654894021	 0.151299
H	-0.0582584122	-2.5285364429	 0.860999039	 0.152169
