22
gdb 122558	4.88695	0.72131	0.69051	1.4402	83.69	-0.2262	0.0834	0.3096	1726.1092	0.193882	-404.293543	-404.284069	-404.283125	-404.328889	34.71	
C	 0.181713466	 1.4649440326	 0.0412162978	-0.383795
C	-0.017276613	-0.0392724072	-0.043524118	-0.02187
O	 0.6700368393	-0.5223848678	-1.17770554	-0.249555
C	 0.5640874057	-1.922864065	-1.3416688114	-0.06788
C	 1.3904461358	-2.3208269557	-2.5481800648	 0.001504
C	 2.9566208702	-2.1968864088	-2.4584837454	-0.229356
C	 3.0508472933	-3.6952000392	-2.7641043981	-0.040453
N	 2.3205329776	-4.3844337367	-1.671517233	-0.330971
C	 1.5692713324	-3.8218762289	-2.8240226259	-0.077617
H	 1.244932816	 1.7061024741	 0.1294374536	 0.124887
H	-0.206056035	 1.9543297118	-0.8569030189	 0.123801
H	-0.3408656128	 1.8719484455	 0.9121588774	 0.111765
H	 0.3598621643	-0.5316064358	 0.8692087392	 0.084447
H	-1.0916223211	-0.2830740513	-0.1156251265	 0.080617
H	 0.9300430394	-2.4503699681	-0.4483771802	 0.106199
H	-0.491732582	-2.2138777126	-1.4888828688	 0.074238
H	 1.0199918337	-1.7997088627	-3.4353057835	 0.079368
H	 3.3684768792	-1.5602886667	-3.2435953182	 0.10248
H	 3.3611770019	-1.8932967181	-1.4902518814	 0.108336
H	 3.8148619329	-4.215986908	-3.3282225033	 0.090477
H	 2.4065076341	-5.3864927763	-1.8408480434	 0.225974
H	 0.9439063721	-4.460578215	-3.4365296574	 0.087404
