16
gdb 45034	2.32376	1.74381	1.14318	4.4021	69.85	-0.246	-0.0357	0.2102	1043.8941	0.125027	-437.909494	-437.901949	-437.901005	-437.942467	28.646	
O	 0.0555781793	 0.0858901341	 0.5694753888	-0.2938
C	-0.0051364002	 1.1999498306	 0.115600359	 0.378186
C	-1.3541051779	 1.8162629561	-0.2776531919	-0.314528
C	-1.2949766293	 3.1131006382	-1.0579585694	-0.036527
N	-0.6023138728	 4.2285310224	-0.4233766672	-0.335757
C	-0.0034773947	 3.6184335885	-1.6359070601	-0.147813
C	 1.2298734441	 2.8061677218	-1.4083626058	 0.414035
O	 2.1089321545	 2.7231369397	-2.2338468335	-0.315187
C	 1.2479100726	 2.0534397211	-0.0872816347	-0.411525
H	-1.891951916	 1.0521484227	-0.8486358325	 0.142264
H	-1.9228234468	 1.9665835723	 0.6483309545	 0.148185
H	-2.1859382387	 3.337589256	-1.6398437351	 0.108292
H	-1.0331880698	 5.1153283787	-0.6695080953	 0.247615
H	-0.0260034872	 4.1636813231	-2.5742563808	 0.10746
H	 1.2380272722	 2.8040691436	 0.7145263361	 0.166594
H	 2.1381873808	 1.4307238111	-0.0058961221	 0.142505
