23
gdb 104158	3.00462	0.98107	0.96244	1.6728	81.17	-0.2564	0.0717	0.3281	1372.7697	0.205279	-425.436774	-425.426765	-425.425821	-425.471753	38.16	
C	-0.1404034287	 1.6039984095	 0.0099875089	-0.441853
C	 0.0182565918	 0.0758347728	 0.0011709584	 0.344412
C	-1.3658810083	-0.5825129646	-0.0003618444	-0.123505
O	-2.029524394	-0.2489686389	-1.2114461123	-0.425361
C	 0.8555188346	-0.3996674567	-1.2351577963	-0.244638
C	 2.2312975067	-0.7915279954	-0.676824589	-0.246991
C	 1.8917463648	-1.3827278528	 0.6982377843	 0.141164
O	 2.9725657004	-1.4543099167	 1.6133730911	-0.438476
C	 0.8287485128	-0.4178062132	 1.2359374688	-0.274835
H	 0.8336852888	 2.0980814345	-0.0702085364	 0.10731
H	-0.7647759315	 1.9306944826	-0.8257911757	 0.130166
H	-0.6097443862	 1.9450316919	 0.9403057884	 0.104396
H	-1.2518885264	-1.6750035617	 0.0969916801	 0.077903
H	-1.9388647941	-0.2317822903	 0.8737831202	 0.083608
H	-2.9010633107	-0.6541807397	-1.2013416813	 0.287262
H	 0.3728146897	-1.2653982007	-1.7004587836	 0.099679
H	 0.9152765588	 0.3706543274	-2.0079108809	 0.099609
H	 2.7807742349	-1.4823564774	-1.3254282218	 0.082012
H	 2.8633213926	 0.0916315559	-0.5209804365	 0.101877
H	 1.4467120243	-2.3826312078	 0.5576501779	 0.058477
H	 3.6234182561	-2.0669224211	 1.2571248647	 0.279442
H	 1.3534342355	 0.417772278	 1.7117396173	 0.106322
H	 0.1963899781	-0.8765924756	 2.0027712183	 0.092021
