21
gdb 107208	3.77084	1.24551	1.11619	0.8533	81.37	-0.2405	0.0838	0.3243	1174.0495	0.18333	-387.05837	-387.050203	-387.049259	-387.090795	32.686	
C	 0.3070621311	 1.3214648448	-0.217617299	-0.251065
O	-0.1561688589	 0.0384508758	 0.1575895947	-0.280409
C	 0.537334352	-0.5181598912	 1.2313291214	 0.443624
C	 1.8951507542	-1.1168332757	 0.9680328687	-0.359471
C	 0.7091650186	-2.0123048497	 1.2997788713	-0.121498
C	 0.4644084914	-2.4642442288	 2.7250856522	-0.033968
C	 1.3999441547	-2.0229482993	 3.8243692811	-0.297812
C	 0.1436820301	-1.233494628	 3.557068157	-0.031583
C	 0.1892266596	-0.0077887221	 2.6410705901	-0.314102
H	 1.375527735	 1.3071306649	-0.476561773	 0.106546
H	-0.2688506312	 1.6259756912	-1.094933637	 0.123758
H	 0.1537547013	 2.0637302169	 0.5791297472	 0.107414
H	 2.2089574006	-1.1283964822	-0.0707626702	 0.112369
H	 2.7062833054	-0.9874092985	 1.6756340395	 0.109577
H	 0.3284520371	-2.6349957636	 0.4988919871	 0.092776
H	-0.079988914	-3.3916893683	 2.859460745	 0.082649
H	 1.4150604742	-2.6244989957	 4.7274279749	 0.107367
H	 2.3670889259	-1.6021507693	 3.5724822752	 0.109187
H	-0.632457179	-1.2587953875	 4.3139730268	 0.08373
H	 0.8790146019	 0.7636906758	 3.0021621953	 0.099489
H	-0.8063213002	 0.4448884403	 2.5846179915	 0.111422
