22
gdb 31657	2.65463	1.16886	0.87562	1.7836	91.74	-0.1933	0.05	0.2433	1423.7039	0.193676	-367.261886	-367.251593	-367.250649	-367.297609	37.044	
C	 0.0422383931	 1.578090368	-0.0383683219	-0.363236
C	-0.0118909051	 0.0424226686	 0.0535046089	-0.294779
C	-1.4070682085	-0.5146800463	 0.0331550216	 0.182411
C	-2.1311654359	-0.9407920706	 1.1253813677	-0.197243
N	-3.3600508746	-1.3824887251	 0.7020432977	 0.018384
C	-4.4408408595	-1.8152241306	 1.5587244297	-0.332482
C	-3.4313095096	-1.2319638255	-0.6612250122	-0.188127
C	-2.244008734	-0.702580933	-1.1154961355	 0.178109
C	-1.8936942779	-0.4152052794	-2.544876567	-0.506309
H	 1.0764549747	 1.9387590268	-0.0230561696	 0.103138
H	-0.4253010264	 1.9377427205	-0.960481625	 0.118044
H	-0.4916926717	 2.0350443176	 0.8008555444	 0.113565
H	 0.5704563452	-0.3832762583	-0.7742550055	 0.096049
H	 0.4930313692	-0.2773719808	 0.9728622732	 0.093798
H	-1.8667315599	-0.9740775045	 2.1716782385	 0.107094
H	-5.0725178595	-0.9782111238	 1.8813636752	 0.133644
H	-5.0666287942	-2.5367064195	 1.0270880804	 0.13694
H	-4.0338341643	-2.3048066924	 2.4472163852	 0.136996
H	-4.3203876048	-1.5228996735	-1.2001834554	 0.106757
H	-1.741156635	 0.6553157613	-2.7293541357	 0.121966
H	-0.9695997903	-0.9222318046	-2.8489032651	 0.120427
H	-2.6876793207	-0.7516968949	-3.2184484995	 0.114852
