15
gdb 55662	2.53309	1.16849	0.94952	2.3882	69.52	-0.2637	-0.0394	0.2243	1258.7221	0.107422	-457.764269	-457.754438	-457.753494	-457.800263	33.279	
C	-0.0750310991	 1.4526843073	-0.1012316911	-0.484861
C	 0.0405348819	-0.0396056677	 0.0553553716	 0.458058
O	 0.0942490836	-0.6468738915	 1.0918990616	-0.351175
O	 0.0818978522	-0.6394919866	-1.167651597	-0.235418
C	 0.0584853718	-2.0636525285	-1.146995227	-0.153298
C	-1.3946030952	-2.5691118151	-1.0352120254	 0.155453
O	-2.3293784293	-1.845953472	-0.8467207897	-0.223449
C	 0.6832067905	-2.5923493348	-2.3492464733	 0.283522
C	 1.1483313144	-3.0824108392	-3.3419336223	-0.397127
H	 0.0645189358	 1.9312741354	 0.8671513652	 0.151722
H	 0.6587082165	 1.8207826602	-0.8221526017	 0.152644
H	-1.0690688781	 1.6932944399	-0.4902176508	 0.166489
H	 0.5780961501	-2.4228808602	-0.2470627205	 0.158637
H	-1.4888597795	-3.6701497772	-1.1390485922	 0.107031
H	 1.5794231944	-3.5035045701	-4.2170235874	 0.211773
