19
gdb 41257	3.36076	1.85399	1.4724	1.9	78.05	-0.2367	0.073	0.3096	923.7625	0.162003	-385.816842	-385.810466	-385.809522	-385.847169	27.264	
C	-0.0394211181	 1.4725288347	-0.0843008475	-0.234262
C	 1.5093794225	 1.5784229791	 0.0519415595	-0.037182
C	 2.0700014946	 1.447258423	 1.5024879013	-0.348841
C	 1.6864489792	-0.0316929468	 1.451972756	 0.306213
C	 1.9526214959	-1.356236712	 2.1433447563	-0.1983
O	 0.6183348298	-1.806793243	 1.7724942071	-0.310001
C	 0.1934978233	-0.4507110415	 1.4802372768	 0.114087
C	 0.0183395415	-0.0833263097	 0.0075652258	-0.089349
C	 1.5825761293	 0.019429447	-0.112486046	-0.0673
H	-0.6571326088	 1.9982645892	 0.6527072018	 0.092366
H	-0.3524247699	 1.7881352884	-1.0830196777	 0.106965
H	 2.0079342968	 2.2861762865	-0.6099308585	 0.068697
H	 3.1558458028	 1.5951305849	 1.4972152768	 0.103012
H	 1.6336433421	 2.0634272401	 2.2955526345	 0.096047
H	 2.7380257035	-2.0017212132	 1.733843955	 0.103554
H	 2.0619865802	-1.2982743029	 3.2368218431	 0.096086
H	-0.5391256573	-0.0917044649	 2.2139288128	 0.064082
H	-0.6435647246	-0.6720041936	-0.628636232	 0.070269
H	 2.2371778271	-0.5202767052	-0.7929947851	 0.063859
