21
gdb 96466	2.17702	1.82361	1.27492	1.7881	77.89	-0.2376	0.0619	0.2995	1068.9209	0.184928	-424.210976	-424.202893	-424.201949	-424.24303	32.73	
O	 0.1500168523	 1.3333997136	-0.3509237985	-0.428853
C	 0.0273529505	-0.0560577362	-0.0468290865	 0.080764
C	 0.7600591023	-0.4210632242	 1.260986555	-0.238075
C	 0.4798344706	 0.5028383685	 2.4574848542	-0.057526
O	-0.8409494804	 0.4867988687	 2.9591289356	-0.247483
C	-1.8033984428	 1.0961033797	 2.1032624354	-0.104433
C	-2.3571868969	 0.1240694402	 1.0838078384	-0.017404
C	-2.5472274767	 0.528680612	-0.3609455754	-0.31616
C	-1.4477721837	-0.4289881642	 0.0143920475	 0.001261
H	 1.0875442558	 1.5509774102	-0.3671991513	 0.28277
H	 0.4787728098	-0.641663206	-0.8639698239	 0.06444
H	 0.5093404424	-1.454720259	 1.5271217987	 0.107338
H	 1.8460908808	-0.3978455103	 1.0839444451	 0.081662
H	 1.1145377749	 0.1897903525	 3.2935194504	 0.100746
H	 0.767859249	 1.5324158724	 2.191663116	 0.08165
H	-2.6060580309	 1.4508466015	 2.7589896252	 0.097851
H	-1.3626624386	 1.9669406124	 1.6018128933	 0.106865
H	-3.0784308779	-0.5798980407	 1.4897579754	 0.081962
H	-3.407032964	 0.1457596018	-0.8996994109	 0.10575
H	-2.2443122716	 1.5304363269	-0.6416836197	 0.133045
H	-1.6119470049	-1.4732491396	-0.235796974	 0.08383
