17
gdb 70131	2.37443	1.97938	1.26065	2.2965	73.55	-0.2323	-0.0323	0.2	998.6392	0.136064	-418.007774	-417.999749	-417.998805	-418.040551	30.239	
C	 0.0865112995	 1.5174798255	-0.1814350985	-0.455724
C	 0.027211245	 0.012037845	-0.0556704416	 0.204442
C	 0.3523342624	-0.6317453947	 1.258429275	-0.278477
N	 1.3264777039	-0.6705197124	 0.159309388	-0.159185
C	 1.4924001915	-1.9470045116	-0.4486263911	 0.049665
N	 0.6716617487	-2.6264658317	-1.1310291286	-0.202836
C	-0.6840563064	-2.1277611255	-1.3140301099	-0.271844
C	-0.9638669227	-0.6735676235	-0.9491658264	 0.326582
O	-1.9153349758	-0.0815658447	-1.4070211342	-0.314938
H	 0.8374582683	 1.9251312606	 0.4986588258	 0.125071
H	 0.3466863556	 1.8095248787	-1.2027166065	 0.135061
H	-0.8895610537	 1.9496554862	 0.0508437207	 0.143737
H	 0.6116547707	 0.012907155	 2.0930916191	 0.137417
H	-0.1401358199	-1.563052362	 1.52624099	 0.134935
H	 2.4939217533	-2.3475323441	-0.2888021882	 0.127029
H	-0.9843899381	-2.2625657347	-2.3587617221	 0.151258
H	-1.3648647725	-2.7691451262	-0.7360049615	 0.147808
