18
gdb 125889	3.64873	1.19485	1.15059	0.6489	78.84	-0.2443	-0.0019	0.2424	1146.0812	0.149804	-398.122441	-398.114549	-398.113604	-398.155664	29.521	
C	-0.1378359098	 1.5193532646	-0.1013307033	-0.41826
C	-0.0060331378	 0.0185657328	 0.0215557417	-0.009977
C	 1.3223450568	-0.6662119793	-0.2068497234	-0.318507
C	 0.7366254031	-0.6314389988	 1.1730264272	 0.073103
N	 1.3648986072	 0.1527487753	 2.200666618	 0.134604
N	 2.3894763038	 0.9721862045	 1.9880881711	-0.22352
C	 2.62100462	 1.5064425932	 3.1906527074	-0.063844
C	 1.7052985259	 0.9680891607	 4.1006228545	-0.062886
N	 0.9125236874	 0.1125092048	 3.4502285697	-0.233052
H	 0.7623586544	 2.0268266429	 0.25323841	 0.143893
H	-0.2967407249	 1.8044831865	-1.1465958875	 0.120957
H	-0.9886953395	 1.8889653129	 0.480765743	 0.122807
H	-0.8852843411	-0.5393672127	-0.29072352	 0.094109
H	 1.3549067026	-1.6233184587	-0.7152187321	 0.119018
H	 2.180722048	-0.0266381409	-0.3747926742	 0.149086
H	 0.3217829755	-1.5333559571	 1.60339045	 0.122192
H	 3.4148546592	 2.2215777904	 3.3347714878	 0.125207
H	 1.5843211792	 1.1425989689	 5.1576529802	 0.12507
