15
gdb 1864	4.75747	2.23069	1.86328	2.0194	56.61	-0.2438	-0.0242	0.2196	715.7164	0.124654	-345.680616	-345.673856	-345.672912	-345.71148	24.789	
C	 0.4112494275	 1.3751544702	 0.1825372173	-0.393971
C	-0.170839564	 0.0034916652	-0.1561383942	 0.116277
C	 0.528521537	-0.6850969887	-1.3364869968	-0.344271
C	 1.5894140972	-1.5498654736	-0.6547613123	 0.369069
O	 2.5400502379	-2.0815280359	-1.1617991996	-0.297159
C	 1.2061766526	-1.599434198	 0.8267274901	-0.18163
O	-0.021987518	-0.9137834382	 0.9472062101	-0.263757
H	 1.4975828289	 1.3281789743	 0.318361894	 0.1197
H	 0.2044350078	 2.0890620994	-0.6215396092	 0.119627
H	-0.0331168711	 1.7543113962	 1.1064910755	 0.130962
H	-1.2488563696	 0.0948687979	-0.3157534062	 0.09123
H	-0.1562660356	-1.3529363365	-1.8719140726	 0.139438
H	 0.9796957938	-0.0094018744	-2.0656669981	 0.134404
H	 1.0867805213	-2.6327328916	 1.169625908	 0.137435
H	 2.0115122044	-1.1390270865	 1.4212561038	 0.122647
