16
gdb 99434	3.28935	0.72999	0.61505	3.7035	91.92	-0.2604	-0.0325	0.2279	1756.6388	0.121767	-363.573808	-363.563966	-363.563022	-363.609201	34.686	
C	 0.0278104861	 1.5580425166	 0.0193189862	-0.402011
C	 0.0064736085	 0.029897394	 0.0105140539	-0.172869
C	-1.4366048732	-0.5579894477	-0.0157054953	-0.38099
C	-2.1605885898	-0.1223391155	-1.223240277	 0.302138
N	-2.7129526376	 0.2437857807	-2.1692854705	-0.323284
C	-1.4345153244	-2.0149159131	 0.0903719277	 0.410645
C	-1.4063413392	-3.2180223919	 0.2029779659	-0.192896
C	-1.3749082537	-4.5730843545	 0.322693046	 0.292702
C	-1.3466797515	-5.7748806709	 0.4307555075	-0.550056
H	 1.0585050781	 1.9217529391	 0.0470287226	 0.127341
H	-0.4507688201	 1.9690592383	-0.8743441179	 0.149604
H	-0.4916063617	 1.9589678179	 0.896520989	 0.122633
H	 0.5513139178	-0.3621484265	-0.8533922161	 0.13309
H	 0.4932693342	-0.3699452399	 0.9051099865	 0.124533
H	-1.9831530904	-0.1450459021	 0.8449465796	 0.160273
H	-1.3235373231	-6.8327016146	 0.521943342	 0.199148
