21
gdb 79520	2.93433	1.5301	1.23821	2.2362	80.65	-0.2239	0.0687	0.2926	1089.1098	0.183354	-387.037094	-387.029186	-387.028242	-387.069238	31.929	
C	-0.1567854103	 1.5754037329	-0.0680029922	-0.401705
C	 0.0280423436	 0.0564709135	 0.0005744371	-0.026604
C	 0.8893430426	-0.4993090525	-1.1313021214	-0.025569
C	 1.3939742204	-1.9243006692	-0.7696530642	 0.025926
O	 2.6645003336	-1.6970002497	-1.4742638655	-0.320634
C	 2.396451282	-0.4546082645	-0.7356164337	 0.050592
C	 1.9415479348	-1.2553114598	 0.5221120246	-0.025575
C	 0.8202853495	-0.5127994912	 1.2455265604	-0.026591
C	 1.3298680047	 0.5070723349	 2.2683629334	-0.401711
H	 0.8006677707	 2.1059812626	-0.0846020639	 0.115513
H	-0.6979841407	 1.8498906953	-0.9796172346	 0.114027
H	-0.7326547282	 1.9525258421	 0.7826193166	 0.115421
H	-0.966813979	-0.4043992884	-0.0342039169	 0.072437
H	 0.6242869713	-0.2948235225	-2.1690784062	 0.072057
H	 0.9024080333	-2.8898350105	-0.8983041046	 0.085945
H	 3.1223486961	 0.3538131043	-0.827928235	 0.087014
H	 2.7015731395	-1.787337464	 1.0951379413	 0.072057
H	 0.1859042615	-1.2327359464	 1.7771334186	 0.072438
H	 2.0113131266	 1.236016703	 1.8180545349	 0.115513
H	 0.5081598705	 1.0608011826	 2.7326745248	 0.115421
H	 1.8779773477	-0.0012366423	 3.0686612566	 0.114027
