16
gdb 87022	2.14953	1.58735	1.06146	2.4622	71.19	-0.2752	-0.0102	0.2651	1136.082	0.123825	-434.097556	-434.08836	-434.087416	-434.131487	33.283	
C	-0.1835684045	 1.5948226726	 0.2209682073	-0.408557
C	-0.150488999	 0.0892833103	 0.1845058735	-0.01411
N	 1.043133851	-0.5516973371	-0.3375151825	-0.343076
C	 0.7460046266	-0.7205235452	 1.0991987218	 0.040385
C	 1.6257222118	-0.0636700957	 2.0331352748	 0.263124
N	 2.2908558536	 0.4227241584	 2.8455460248	-0.359605
C	 0.2001311052	-2.0850443411	 1.4947164935	 0.396126
N	 0.3504704439	-2.4349962231	 2.7913960547	-0.558865
O	-0.3421958624	-2.7802638739	 0.6539958867	-0.376614
H	 0.8005791162	 2.0049082154	 0.4577631759	 0.149561
H	-0.4877890046	 1.9795282519	-0.7577062609	 0.136003
H	-0.9030816592	 1.9502743005	 0.9648806305	 0.131186
H	-1.095413985	-0.4108778975	-0.0185708189	 0.123679
H	 0.7847687691	-1.4396430191	-0.7728155265	 0.260224
H	 0.8601303082	-1.863140974	 3.4443064715	 0.286581
H	 0.023496939	-3.3420595622	 3.080968174	 0.273956
