18
gdb 17545	4.30261	1.77839	1.64548	1.7553	70.54	-0.2531	0.0977	0.3508	853.9339	0.155281	-347.786464	-347.779796	-347.778852	-347.817095	26.996	
C	-0.4935131748	 1.2148902017	 0.0129741749	-0.289998
C	 1.0164066028	 1.1887483727	-0.001601669	-0.335435
C	 0.2405570161	-0.0997575463	-0.0008994687	 0.391602
C	 0.1954547292	-1.0131175618	 1.2304253217	-0.324897
C	-0.526047264	-2.249836216	 0.7299719872	 0.053372
O	-1.7313448361	-1.962642037	 0.008272302	-0.256927
C	-0.5401023237	-2.2421905587	-0.7393014671	 0.053373
C	 0.1718174459	-1.0002598223	-1.2405701242	-0.324901
H	-0.992412337	 1.510974033	 0.9299953387	 0.110423
H	-1.0098183866	 1.520469507	-0.8912076172	 0.110423
H	 1.5259564712	 1.4783340348	-0.9152218199	 0.107914
H	 1.5433708777	 1.4688379723	 0.9050740582	 0.107914
H	 1.2036973484	-1.3013289518	 1.5584641783	 0.100506
H	-0.3063640045	-0.5433728874	 2.0827615166	 0.107888
H	-0.5400326567	-3.1647274583	 1.3172979582	 0.090175
H	-0.565411602	-3.1509213519	-1.3357418613	 0.090175
H	-0.3461670556	-0.5217234495	-2.0782183986	 0.107888
H	 1.1735713597	-1.2849427404	-1.5908178498	 0.100506
