17
gdb 12507	3.45058	1.92201	1.36199	2.3511	70.5	-0.2314	0.0014	0.2328	922.1224	0.143203	-363.864848	-363.857243	-363.856299	-363.896848	28.095	
C	 0.5003489136	 1.4456605622	 0.1707346154	-0.486652
C	-0.0460858171	 0.0681104062	-0.0758164961	 0.315186
C	 0.0259228337	-0.5630713362	-1.2481864806	-0.157243
C	-0.5110636513	-1.9601206726	-1.4789842187	-0.215825
N	-0.0826610888	-3.0072539898	-0.5543329615	-0.263047
C	 0.1355976783	-2.8589389177	 0.6780786942	 0.139975
O	 0.0079845331	-1.8079753761	 1.5293260159	-0.220243
C	-0.7041714094	-0.6404181008	 1.0867927801	-0.174339
H	 1.2702969156	 1.4301878615	 0.9529485181	 0.133324
H	 0.9416091118	 1.8705964637	-0.7344255519	 0.125766
H	-0.2844807432	 2.1294408111	 0.5198450034	 0.125614
H	 0.4996878731	-0.0719627818	-2.0957675	 0.088944
H	-1.6126661077	-1.9433225005	-1.5084862591	 0.118872
H	-0.2075724872	-2.2922940652	-2.4769326321	 0.115141
H	 0.5098100636	-3.7078497207	 1.2521135536	 0.11846
H	-0.7465850379	-0.0010525053	 1.971167152	 0.116434
H	-1.7325083901	-0.9326422181	 0.8348993072	 0.119633
