17
gdb 126094	3.09202	1.60805	1.12224	2.8765	74.52	-0.2316	0.0129	0.2445	1060.5476	0.138747	-418.023547	-418.016011	-418.015067	-418.055849	28.629	
C	 0.1103497497	 1.559736708	-0.0446599351	-0.385586
C	-0.0148090314	 0.0465371659	 0.091176314	 0.029498
O	 0.5462748862	-0.5922164023	-1.0779448954	-0.299006
C	 1.4517353844	-1.663610862	-0.7559623341	-0.197739
C	 1.6255837315	-1.5612293295	 0.7229552528	 0.198328
C	 2.273622904	-2.041581641	 1.8354870015	-0.217683
N	 1.7706252072	-1.3224990435	 2.8823138977	-0.183189
N	 0.8395565552	-0.4059725946	 2.5232301532	-0.33591
C	 0.7668865829	-0.5677583397	 1.2116114849	 0.298947
H	 1.162267448	 1.8515619506	-0.1068905553	 0.118968
H	-0.4027357787	 1.901503738	-0.947713097	 0.122151
H	-0.3397875566	 2.051845913	 0.8230328367	 0.125781
H	-1.0801794268	-0.2245216301	 0.1594101721	 0.090282
H	 1.0160318693	-2.6241129577	-1.0703092667	 0.108018
H	 2.3774231218	-1.5175236321	-1.3275740609	 0.114072
H	 3.0229335893	-2.8019129251	 1.988540143	 0.138504
H	 2.0252761143	-1.3993382179	 3.8525879585	 0.274564
