21
gdb 64315	2.5385	1.46531	1.22555	1.1828	85.69	-0.2213	-0.0186	0.2026	1125.247	0.182885	-387.09991	-387.091151	-387.090207	-387.132753	35.117	
C	 0.8288953066	 1.0319353438	 0.0037292918	-0.428801
C	-0.242087928	-0.0781728671	-0.0328632208	 0.3529
O	-1.5414264264	 0.5309786055	 0.0295676967	-0.472886
C	-0.2261346234	-0.8041152324	-1.4082315748	-0.215353
C	 0.4203012934	-2.1995276322	-1.4253865772	-0.260413
C	 1.801030889	-2.2957497948	-0.8292065695	-0.070228
C	 2.0258675833	-2.1506373888	 0.4842331826	-0.084132
C	 0.9677843377	-1.8087146051	 1.4335539809	-0.091254
C	-0.0566738735	-0.980410277	 1.1819271556	-0.119176
H	 1.8301172886	 0.6134831612	-0.1222139511	 0.130441
H	 0.6389021049	 1.7508257371	-0.7993633564	 0.117651
H	 0.8048394835	 1.5629582422	 0.9625244645	 0.100736
H	-1.5321357959	 1.1712849363	 0.749431729	 0.271681
H	-1.2681483789	-0.9038817782	-1.7276907399	 0.114647
H	 0.2640362499	-0.1499922866	-2.1385513569	 0.09385
H	-0.23806788	-2.8722718445	-0.8585206573	 0.1172
H	 0.4311338994	-2.5629430872	-2.4578695764	 0.0948
H	 2.6275649816	-2.5491482234	-1.4878782699	 0.089525
H	 3.0211305749	-2.3261735577	 0.8870051983	 0.086429
H	 1.0277053338	-2.2658964841	 2.4199666047	 0.089915
H	-0.8049277605	-0.8237344769	 1.9561255059	 0.082469
