15
gdb 56713	2.74326	1.37512	1.02651	0.7496	69.72	-0.2873	-0.0124	0.2749	1115.8486	0.112958	-412.967811	-412.958957	-412.958012	-413.001642	31.753	
N	-0.3170153865	 1.5669402432	-0.199712009	-0.493285
C	-0.0240229233	 0.1431095218	-0.0959129599	-0.208346
C	-1.2575084137	-0.5812563879	 0.2505341241	 0.292784
N	-2.2264885326	-1.1707174553	 0.4700939226	-0.313958
C	 0.6184330037	-0.499150902	-1.3538852898	 0.126449
C	 0.5093446858	-1.961226803	-1.6399693844	-0.261726
N	-0.204919042	-0.9902890377	-2.4729147785	-0.323332
C	 1.8202145679	 0.21114421	-1.7434052274	 0.274934
N	 2.7820834445	 0.8024173388	-1.9913164473	-0.330652
H	 0.5482565903	 2.0848339307	-0.3196122934	 0.26364
H	-0.9014666628	 1.7566726633	-1.0086511745	 0.250226
H	 0.6790223396	 0.0143460389	 0.7363130918	 0.160571
H	 1.3382156046	-2.464616983	-2.1266749872	 0.151176
H	-0.0556524397	-2.5603203889	-0.9316820299	 0.153947
H	-1.1895690758	-0.963251249	-2.2095349372	 0.257572
