19
gdb 61963	2.86101	0.7545	0.62108	5.518	79.6	-0.2737	0.0108	0.2845	1745.898	0.157469	-419.228601	-419.21834	-419.217396	-419.26523	35.362	
C	-0.105583861	 1.5598840021	 0.0018880462	-0.399078
C	-0.005026442	 0.0371989887	-0.0059920476	 0.103203
C	 0.7407275843	-0.5044177014	 1.211811927	-0.191021
C	 0.831357807	-2.0425979824	 1.2074332949	-0.349031
C	 1.5794685048	-2.5559689651	 2.3516592479	 0.257382
N	 2.1785525024	-2.9440441468	 3.2603466565	-0.303518
O	-1.3169756726	-0.5497292475	 0.0208983549	-0.195211
C	-1.9605948742	-0.6860195387	-1.1563481831	 0.127758
N	-3.153628286	-1.0939399269	-1.1794903849	-0.438236
H	 0.8912626475	 2.0110661101	-0.0015551016	 0.126772
H	-0.6452168455	 1.9188403525	-0.8792236701	 0.126331
H	-0.6415971493	 1.9003110499	 0.8925705336	 0.141114
H	 0.5080653141	-0.296229731	-0.9211971654	 0.085381
H	 1.7459944003	-0.072280905	 1.2297020494	 0.125364
H	 0.2296308406	-0.1728757797	 2.1214645689	 0.137003
H	-0.1758320473	-2.469838766	 1.2163095601	 0.179416
H	 1.3191859884	-2.3943689668	 0.2901354445	 0.146779
H	-1.3406769095	-0.4275698627	-2.0268230831	 0.087496
H	-3.479956832	-1.1641396933	-2.140985168	 0.232096
