13
gdb 132656	3.19389	1.42451	0.98559	2.5083	65.05	-0.2208	-0.0247	0.1961	1076.4498	0.09077	-494.099873	-494.092628	-494.091684	-494.131438	27.968	
N	 0.0435655937	 1.3245488437	 0.1266857734	-0.555364
C	 0.0171919429	-0.0399554669	 0.0406237196	 0.430314
N	-1.1820224707	-0.6316754909	 0.0834001158	-0.322567
C	-1.1687276365	-1.9683708086	 0.051099912	-0.097154
C	-0.00565042	-2.7029004897	-0.0255536613	 0.138188
F	-0.0096408743	-4.0378838493	-0.0583008007	-0.066523
C	 1.1940847787	-1.983013751	-0.0772454881	 0.316728
O	 2.3572715761	-2.6412652526	-0.1639351182	-0.400834
N	 1.2081118316	-0.6615413987	-0.0462962723	-0.399848
H	 0.8888076392	 1.7826524315	-0.1693623312	 0.261173
H	-0.827113517	 1.7957050831	-0.0539928771	 0.264576
H	-2.1261934213	-2.4824435427	 0.084760639	 0.12802
H	 3.0490851174	-1.9643671678	-0.1828621708	 0.303291
