18
gdb 6384	4.31476	1.02483	0.9269	3.6397	65.16	-0.2461	-0.0165	0.2295	1262.8562	0.150971	-422.090005	-422.080488	-422.079543	-422.12526	33.538	
C	 0.2630110679	 0.789292054	 0.8859934586	-0.484957
C	 0.038231269	-0.0009537483	-0.3857831032	 0.393365
O	 0.845542981	-0.0331740907	-1.2848870281	-0.298751
C	-1.2539193417	-0.8158054612	-0.4769765947	-0.315861
C	-1.0447641116	-2.2494293965	 0.0384939396	 0.098981
O	-0.758023875	-2.2875841251	 1.4428860214	-0.437983
C	-2.2373466678	-3.1635280885	-0.2510971821	-0.064683
O	-2.0183625018	-4.4572675939	 0.2622231718	-0.420627
H	 1.2233610118	 1.3042163719	 0.8454959745	 0.1423
H	-0.5434818382	 1.5169541735	 1.0334160751	 0.133056
H	 0.2394402761	 0.10042981	 1.7376321249	 0.150795
H	-2.0678916463	-0.3414676016	 0.0862317153	 0.093431
H	-1.5418810751	-0.8602424493	-1.5316658327	 0.131152
H	-0.1541613262	-2.6764278758	-0.4346612559	 0.123726
H	-1.508744252	-1.8934573858	 1.9049506776	 0.282906
H	-3.1511104919	-2.7055085806	 0.174298106	 0.07144
H	-2.3922758598	-3.2564784388	-1.3312519666	 0.115671
H	-1.5927028284	-4.3301046032	 1.1199941986	 0.286039
