15
gdb 30890	2.54346	1.40835	0.95168	2.1309	65.88	-0.1835	0.0362	0.2197	1191.2674	0.112105	-491.098825	-491.089922	-491.088978	-491.132755	31.873	
C	-0.3739139045	 1.2216282642	-0.0093229983	-0.249466
O	 0.6808120887	 0.2545828985	 0.1056780621	-0.260741
C	 0.8622272354	-0.5156700046	-0.9678121078	 0.258311
C	 0.5933382767	-1.7986969594	-1.294956936	 0.215223
O	-0.0730167206	-2.7207835579	-0.5694476548	-0.43548
N	 1.1204244587	-2.1050239915	-2.5418100513	-0.417387
C	 1.6731309766	-0.9908807298	-2.9227248809	 0.463386
N	 2.2691658921	-0.7267763735	-4.1313614438	-0.584446
O	 1.5812222701	 0.0264691874	-2.0537931249	-0.217459
H	-0.1475774346	 1.9530617432	-0.7928909557	 0.128413
H	-1.3258215337	 0.7277617344	-0.2329665834	 0.128134
H	-0.4349128992	 1.7270897776	 0.9560324683	 0.133822
H	-0.0642320491	-3.5318396902	-1.0909583292	 0.302992
H	 2.5425660616	-1.5650463348	-4.6228766747	 0.269553
H	 2.9975794018	-0.0281896635	-4.0953776095	 0.265145
