17
gdb 53325	3.3383	1.0513	0.92146	1.5905	77.18	-0.229	0.0173	0.2464	1315.6843	0.133928	-421.745101	-421.736067	-421.735123	-421.780369	32.363	
C	 0.0578378827	 1.5590005537	-0.0971354568	-0.501296
C	-0.0184968503	 0.1073164767	-0.0460774865	 0.10439
C	-0.0954785104	-1.093951959	 0.0023053842	 0.07555
C	-0.1597908809	-2.5431343596	 0.0378080932	-0.09626
O	 0.1264876081	-3.136416619	 1.3543506383	-0.308253
C	-1.043128741	-3.9646195001	 1.2542680215	 0.018812
C	-2.2496291803	-3.0949508497	 1.2928682523	 0.131728
O	-2.3079221799	-1.9213104419	 2.029086021	-0.431519
C	-1.5088275548	-3.2671877099	-0.0240294968	-0.190298
H	 0.7264264204	 1.9428260244	 0.6811779324	 0.155587
H	 0.4446756413	 1.9008878517	-1.0632337001	 0.152648
H	-0.9264639263	 2.015366647	 0.0525597602	 0.156535
H	 0.5475403482	-2.9715542587	-0.6827569261	 0.114394
H	-0.9461839694	-5.0035289382	 1.5489891146	 0.105119
H	-3.1995348631	-3.6218910279	 1.3127444967	 0.111966
H	-1.3948702836	-1.6743903623	 2.2303558159	 0.296686
H	-1.9624355806	-3.6493138473	-0.928797924	 0.104211
