18
gdb 133872	3.17344	2.01595	1.96622	0.8088	75.03	-0.2108	0.088	0.2988	817.6336	0.151201	-401.859197	-401.853493	-401.852549	-401.888757	25.714	
C	-1.0853671212	 1.7035183787	 0.4472199949	-0.322925
C	 0.4287119801	 1.4759803881	 0.0451560695	-0.083117
C	-0.0846508544	 0.3923205192	-0.9448867068	 0.118961
O	 0.5857191104	-0.8217557981	-1.2071364989	-0.281239
C	 0.4460061152	-1.5707583287	 0.0160377871	 0.074685
C	 1.2789841895	-0.77111204	 1.0183452578	-0.176181
N	 0.4663931943	 0.4665430196	 1.175017207	-0.14643
C	-0.8315731196	 0.177077501	 0.3981957233	 0.281965
C	-1.0475590588	-1.3141569039	 0.4879805159	-0.368667
H	-1.7449306164	 2.1285379478	-0.3111962001	 0.103466
H	-1.2269364538	 2.133148413	 1.4378968564	 0.118911
H	 1.1967631024	 2.2449235877	-0.0701562437	 0.079996
H	-0.6140077826	 0.7255758193	-1.842796359	 0.07631
H	 0.7262211305	-2.6081671754	-0.1704156077	 0.079997
H	 2.2825271808	-0.5812038951	 0.6272831604	 0.110522
H	 1.3678755106	-1.2494849037	 2.0001677237	 0.099562
H	-1.7707249482	-1.7139582848	-0.2250700461	 0.116273
H	-1.2349892288	-1.7028390146	 1.4908519864	 0.11791
