17
gdb 126973	3.33928	1.03624	0.80097	4.9807	72.39	-0.2249	-0.0124	0.2125	1401.225	0.136536	-451.285875	-451.277007	-451.276063	-451.320021	32.265	
C	-0.0811783105	 1.5007894684	 0.011260447	-0.403641
C	 0.0581838149	-0.0164103225	-0.0043448658	-0.110468
N	 0.6627160624	-0.4645037957	-1.2595374645	-0.410534
C	 0.8168675348	-1.8161754656	-1.4624521946	 0.381802
N	 0.3183734398	-2.7602143761	-0.7094792561	-0.18179
O	 0.6776147017	-3.9464676315	-1.3207428112	-0.183076
N	 1.4063415365	-3.7176184759	-2.4663273923	-0.157103
C	 1.5043385985	-2.4235099092	-2.5682981441	 0.271387
N	 2.2195089247	-1.7458490648	-3.545428369	-0.602271
H	 0.8970247691	 1.991273434	-0.0574841304	 0.116693
H	-0.6953781482	 1.8468364134	-0.8251511179	 0.129812
H	-0.5486850945	 1.8289953284	 0.9433834057	 0.129702
H	 0.6408002333	-0.3620218693	 0.8626906937	 0.113698
H	-0.9225416789	-0.4957477808	 0.0725826329	 0.138054
H	 1.4854933419	 0.062119289	-1.5273408245	 0.242538
H	 2.5653446101	-2.3671603327	-4.266270539	 0.266397
H	 1.6933865242	-0.983754199	-3.9569125098	 0.2588
