17
gdb 13610	3.41172	1.48076	1.27014	1.5613	66.13	-0.253	0.0075	0.2604	1025.78	0.141256	-401.00513	-400.996426	-400.995482	-401.038821	30.437	
C	-0.0615820876	 1.5219104453	 0.6532800604	-0.23929
O	-0.1080907276	 0.2204068082	 1.2514350625	-0.217407
C	 0.7880722448	-0.6584383181	 0.7700535011	 0.458434
O	 1.5818312662	-0.3973295172	-0.102323585	-0.376172
C	 0.711421669	-2.0093420458	 1.4084991792	-0.152532
N	 0.0830731751	-2.1657736982	 2.7308119257	-0.323967
C	-0.5480593084	-2.8121156918	 1.5835949029	 0.016859
C	-1.9251536824	-2.3455901332	 1.1809271805	-0.405665
H	-0.2614419875	 1.4625721923	-0.4196764064	 0.139091
H	-0.833007541	 2.1051493078	 1.1558509908	 0.133423
H	 0.9208501349	 1.9769239155	 0.8011392103	 0.142052
H	 1.6090797127	-2.5783545334	 1.1834265237	 0.106864
H	 0.6161008182	-2.8298946191	 3.2855824567	 0.238512
H	-0.3883913854	-3.8850210275	 1.473092874	 0.092067
H	-2.025369832	-1.2687757172	 1.3170074287	 0.147877
H	-2.1254820138	-2.5935152748	 0.1330520073	 0.118589
H	-2.6824307351	-2.8443534628	 1.7952039076	 0.121265
