19
gdb 56898	2.8711	1.15718	1.09828	2.7427	76.96	-0.2568	0.0444	0.3012	1198.5558	0.157873	-422.970875	-422.961832	-422.960887	-423.004421	35.065	
O	-0.2885351882	 1.3853739713	 0.4942135416	-0.43151
C	-0.0331938419	 0.030418636	 0.1649484969	-0.069189
C	 0.789371168	-0.0945823195	-1.0489814415	 0.332698
C	 1.4799554947	-0.1991590844	-2.0278349991	-0.470835
C	 0.5928100366	-0.7915676889	 1.3136527094	-0.019849
C	 2.0285059156	-0.3717832638	 1.7499881772	-0.237102
C	 1.4381222364	 0.3221100206	 2.9961336459	 0.111744
O	 1.3954644697	 1.7273323026	 2.7504189643	-0.427131
C	 0.0878071957	-0.4068443475	 2.7384331707	-0.276157
H	 0.452676243	 1.7240488828	 1.021673103	 0.28976
H	-1.0213067861	-0.3996223766	-0.047322894	 0.108854
H	 2.075867559	-0.2829394513	-2.9028555655	 0.194616
H	 0.494577563	-1.8482667025	 1.0538878721	 0.084519
H	 2.6530681536	-1.2306237318	 2.0044511628	 0.105978
H	 2.5878409496	 0.2815492218	 1.0763841389	 0.123965
H	 1.9267856582	 0.1266534017	 3.9578214372	 0.074619
H	 0.7808863217	 2.1252339123	 3.3772696656	 0.290987
H	-0.8060482373	 0.2194257492	 2.7861082794	 0.112439
H	-0.0430936312	-1.2771529321	 3.3866064051	 0.101592
