12
gdb 21678	5.66415	1.63415	1.27028	6.1574	60.44	-0.2415	-0.079	0.1625	869.4695	0.084663	-414.665735	-414.659191	-414.658246	-414.696384	24.704	
N	 0.0424063675	 1.4018250343	 0.1462247168	-0.558295
C	 0.0118140472	 0.0205074758	 0.0318885947	 0.389346
N	-1.1521936645	-0.5501711519	 0.0026131001	-0.15752
O	-1.1776026406	-1.9458339326	 0.0079324665	-0.258561
C	-0.0552303534	-2.7470863603	-0.021610697	 0.449542
O	-0.2022539763	-3.941255012	-0.0409967101	-0.338476
C	 1.226214718	-2.0447877112	-0.0205347653	-0.216152
C	 1.2631935802	-0.7055953599	 0.0142209078	-0.108192
H	 0.76657633	 1.8608683446	-0.3879280416	 0.259104
H	-0.8654006251	 1.8291461661	 0.0157043583	 0.267506
H	 2.113202873	-2.6659015906	-0.0376951804	 0.144458
H	 2.1968783739	-0.1523071722	 0.0389344803	 0.127239
