23
gdb 65124	3.18241	1.26064	1.1584	0.1093	89.36	-0.2602	0.0958	0.356	1202.2103	0.206938	-351.090347	-351.082044	-351.0811	-351.123042	33.832	
C	 0.6502834745	 0.2270500363	-1.3611094045	-0.456578
C	 0.0639624698	 0.0428037142	 0.0277815418	 0.320855
C	 0.9754957487	-0.535192911	 1.0883847091	-0.307361
C	 0.5963854582	 0.9232063472	 1.1378181681	-0.297541
C	-1.3763156836	-0.4410385415	 0.0317295746	-0.010333
C	-2.4331947841	 0.0532032336	 1.0747997717	-0.064641
C	-2.5142997946	 1.3972620169	 0.2868708405	-0.21977
C	-2.5019511889	 0.2757028019	-0.7904507526	-0.056348
C	-3.5214563633	-0.4860512552	 0.1025663137	-0.225985
H	 1.7143088293	 0.4803017037	-1.31255281	 0.108359
H	 0.5533075845	-0.6899558634	-1.9547225027	 0.112988
H	 0.1404301212	 1.0293429458	-1.9065562329	 0.116398
H	 0.5351806456	-1.194086027	 1.8302989256	 0.106502
H	 1.9898976363	-0.798299575	 0.806635503	 0.10414
H	 1.3524221831	 1.6596166101	 0.8836880948	 0.104378
H	-0.0814331452	 1.2401468791	 1.922176703	 0.113674
H	-1.386794057	-1.5295172428	-0.1134755129	 0.061495
H	-2.4025096929	-0.0778412261	 2.1583926297	 0.065136
H	-3.4479768949	 1.958125818	 0.388571664	 0.08436
H	-1.6495345664	 2.0589607003	 0.3288623663	 0.102502
H	-2.545897865	 0.4002987844	-1.8737707622	 0.065306
H	-3.5762734862	-1.5711951398	-0.0234335548	 0.085861
H	-4.515606749	-0.0402135796	 0.1924169768	 0.086603
