17
gdb 90534	4.60603	1.08463	1.00056	1.1763	75.03	-0.2522	0.0145	0.2667	1205.3208	0.134223	-421.747221	-421.73897	-421.738026	-421.780177	31.128	
C	 0.4812466978	 1.5491108367	-0.1303813838	-0.407746
C	 0.0817983166	 0.096839194	-0.0146665899	 0.13099
O	 0.9217997185	-0.8085662802	-0.804386544	-0.315258
C	 1.1742588428	-1.6470013252	 0.3269052484	 0.057545
C	 2.4493378068	-1.2245052045	 1.1070017359	-0.109345
O	 1.6607039951	-0.2738733863	 1.8918753805	-0.295656
C	 0.4308324698	-0.6882889024	 1.2690526522	 0.04299
C	 3.0730555382	-2.2447298908	 1.9287544524	 0.3375
C	 3.5716406487	-3.1175189593	 2.5879753701	-0.43016
H	 1.4804399535	 1.7074890291	 0.2808839407	 0.138143
H	 0.4722242243	 1.8573070925	-1.1800959609	 0.129476
H	-0.226181266	 2.1806903735	 0.4174896775	 0.120906
H	-0.9687384635	-0.0516667089	-0.3012494849	 0.081007
H	 0.9886217295	-2.7068656474	 0.1518728123	 0.101767
H	 3.1840603126	-0.7110990209	 0.4770990275	 0.119987
H	-0.3521198907	-0.9239137869	 1.9907955559	 0.093366
H	 4.0227106959	-3.8794199631	 3.1748527202	 0.204488
