21
gdb 86005	1.94871	1.48284	1.39275	3.3409	78.56	-0.2387	-0.0291	0.2096	1143.6258	0.178956	-424.230053	-424.219905	-424.218961	-424.264862	37.132	
C	-0.4158368313	 1.389569727	-0.1694920108	-0.406011
C	 0.0343447128	-0.0490625216	 0.0083072795	 0.144235
O	 1.1677278592	-0.3687654306	-0.839328409	-0.321592
C	 2.0296884595	-0.6193014647	 0.2798746692	 0.326434
C	 2.676188514	-1.9979624996	 0.2161181121	-0.460507
C	 3.0973244521	 0.4577803799	 0.4351169002	 0.122062
O	 3.0965664827	 1.5187341374	-0.1306282082	-0.248369
C	 0.834731787	-0.4442133148	 1.2822043309	-0.105603
C	 0.9329003438	 0.5210921752	 2.4562979634	-0.430226
H	 0.419440753	 2.0813496986	-0.0421012562	 0.144733
H	-0.8121302546	 1.5242499045	-1.1806721851	 0.12688
H	-1.2101481321	 1.640978777	 0.5420173354	 0.109191
H	-0.8001100898	-0.7293697562	-0.2057531833	 0.075377
H	 3.3171774554	-2.0822050288	-0.6677883192	 0.136977
H	 3.2884084043	-2.1883489219	 1.1043874189	 0.120537
H	 1.9051427201	-2.7697252711	 0.1528667933	 0.129001
H	 3.9049495803	 0.1892498471	 1.1572445017	 0.071595
H	 0.523308748	-1.4271773309	 1.6475234112	 0.083101
H	 1.2636397697	 1.5172715436	 2.1517742432	 0.139567
H	-0.0423807907	 0.6275613262	 2.942712229	 0.123136
H	 1.6336234766	 0.1498763539	 3.2119395536	 0.119481
