23
gdb 86879	3.00517	1.06023	0.88713	0.9479	91.6	-0.2522	0.0541	0.3063	1408.0934	0.205327	-351.146399	-351.136563	-351.135619	-351.181059	37.795	
C	 0.2718488283	 1.666342708	-0.0993784708	-0.396233
C	 0.0879121962	 0.1449809832	-0.0074582782	 0.00157
C	 0.659714082	-0.5890080664	-1.23388078	-0.225481
C	 2.1899061737	-0.6976883476	-0.9548681101	-0.154739
C	 2.3130143635	-0.6701905166	 0.6083351673	-0.234584
C	 0.8707942748	-0.5251280535	 1.1508296776	 0.055741
C	 0.7833371128	 0.1552705577	 2.5163359587	-0.4196
C	 2.8074267555	-1.8576714148	-1.5809856522	 0.304451
C	 3.3060433411	-2.8257890831	-2.0920427807	-0.458018
H	 1.3272604722	 1.9518784871	-0.171129452	 0.114952
H	-0.2350304118	 2.0597776435	-0.9866637927	 0.112946
H	-0.1471475749	 2.1762202239	 0.7731164578	 0.115704
H	-0.9840393389	-0.0619056162	 0.0940566812	 0.063723
H	 0.2353886483	-1.5960286203	-1.2965535508	 0.106885
H	 0.4513261616	-0.0857409822	-2.1822221333	 0.097379
H	 2.6791304229	 0.1970352037	-1.3564280147	 0.102779
H	 2.8012625741	-1.5705300871	 0.9871430595	 0.111284
H	 2.9300662944	 0.1798770441	 0.9175193198	 0.098679
H	 0.4549058615	-1.5365492088	 1.253522101	 0.073043
H	 1.2220955359	 1.1584120017	 2.4963721217	 0.115719
H	-0.2561558827	 0.2502126094	 2.8492646961	 0.110988
H	 1.3213017098	-0.4225201425	 3.2754653796	 0.113769
H	 3.7515234	-3.6757003532	-2.5459657149	 0.189045
