22
gdb 104072	2.6094	1.22281	1.06848	1.567	82.8	-0.2372	0.035	0.2722	1288.0311	0.192917	-404.393938	-404.383966	-404.383022	-404.429082	36.837	
C	 0.055321045	 1.5986332992	 0.2047293187	-0.394602
C	 0.1124991595	 0.0711090004	 0.1157113347	-0.210212
C	 0.641149246	-0.4913556369	-1.2109192273	 0.367577
C	 2.0549693301	-0.0294873746	-1.5534873757	-0.437868
C	 0.4741999515	-2.0402261943	-1.2964920704	-0.234669
N	-0.486008838	-2.2804644801	-2.3780104317	-0.309891
C	-0.8067759876	-1.1378489561	-2.833700427	 0.398742
C	-1.7615461458	-0.8696798248	-3.9472821629	-0.475158
O	-0.2455871912	-0.0292570332	-2.2799894359	-0.28602
H	 1.0524166841	 2.0487137902	 0.182362656	 0.116929
H	-0.5215950185	 2.0118802976	-0.6271973322	 0.132472
H	-0.4232950892	 1.9104212437	 1.1379265305	 0.113208
H	 0.7366447869	-0.3325860967	 0.9235232442	 0.098921
H	-0.8924776056	-0.3406767972	 0.2687751021	 0.104169
H	 2.7554599387	-0.341993703	-0.7718921905	 0.118192
H	 2.3783701073	-0.4738423268	-2.4992504831	 0.123951
H	 2.1095527957	 1.057389195	-1.651959631	 0.127572
H	 1.4226073039	-2.5440408609	-1.5173898851	 0.106096
H	 0.096365117	-2.463140281	-0.3580480388	 0.106656
H	-2.1569076941	-1.8115537636	-4.3259844805	 0.150343
H	-2.5848452412	-0.2388437527	-3.5974313629	 0.141544
H	-1.2596917546	-0.3290080843	-4.755933861	 0.142049
