17
gdb 63599	4.6344	0.701	0.66515	2.2714	94.49	-0.2297	-0.0123	0.2174	1675.4456	0.132364	-384.625919	-384.616232	-384.615288	-384.6604	36.098	
C	-0.1104935859	 1.548376674	-0.141951495	-0.450698
C	-0.0054024228	 0.0473966703	-0.0232926689	 0.408728
O	-1.1653333883	-0.6531907684	-0.3863137893	-0.460715
C	 1.3036663876	-0.6551547819	-0.2395119884	-0.341816
C	 0.6887352738	-0.5971127229	 1.166487629	-0.295673
C	 1.2958501601	 0.1797310187	 2.1969019708	 0.41537
C	 1.8083889282	 0.8286755761	 3.0835150267	-0.236831
C	 2.386992278	 1.5614711377	 4.0715114729	 0.298189
C	 2.9005667277	 2.2126858914	 4.9501912254	-0.571599
H	 0.7864076621	 2.0421876822	 0.2387500529	 0.135913
H	-0.2407849053	 1.8400244435	-1.1910556949	 0.109969
H	-0.9730086362	 1.9122161239	 0.4241914812	 0.135695
H	-1.2910593863	-0.5434628693	-1.3359464451	 0.284146
H	 1.2803169887	-1.6221941379	-0.7283519805	 0.122917
H	 2.1930246427	-0.0600942382	-0.4128068378	 0.127264
H	 0.2119351928	-1.5169259796	 1.4920860075	 0.130865
H	 3.3527143429	 2.7840872604	 5.7220526935	 0.188276
