17
gdb 41015	3.07984	1.97663	1.45414	3.348	71.02	-0.229	0.0572	0.2862	896.1764	0.137367	-421.70712	-421.700891	-421.699947	-421.737431	26.336	
C	 0.0100442533	 1.484692929	 0.3183000753	-0.160624
O	 1.4189766537	 1.5426765846	-0.1112883804	-0.352971
C	 1.1658265047	 0.3761128581	-0.8798738957	 0.506059
C	-0.0304344653	-0.0212566049	-0.0703848233	-0.066987
C	-0.7903489403	-0.9049966126	-1.0851315688	-0.313121
C	 0.3557673553	-1.0507636496	-2.1177062001	-0.038204
C	 0.8665590666	 0.3656734759	-2.4297318592	-0.015171
O	 2.2184329326	-0.122529917	-2.733868554	-0.313642
C	 1.8464068998	-0.8456857017	-1.5236492711	-0.075504
H	-0.0931974441	 1.7403243394	 1.3748781937	 0.118221
H	-0.6099079048	 2.1456998839	-0.2993644506	 0.110094
H	 0.2719058898	-0.6029365511	 0.8054327981	 0.095104
H	-1.13296819	-1.8489214736	-0.6546988769	 0.109764
H	-1.6537922616	-0.4189075672	-1.552808707	 0.112944
H	 0.2800757936	-1.7524895833	-2.9465783881	 0.092175
H	 0.4391573055	 1.1310852201	-3.0773160049	 0.095839
H	 2.5403540513	-1.58493339	-1.1235108872	 0.096024
