21
gdb 114018	3.92797	0.58751	0.55447	2.56	81.08	-0.2482	-0.0207	0.2275	1985.7551	0.180115	-424.2136	-424.203147	-424.202203	-424.250884	36.4	
O	-0.2093061287	 1.3454622051	-0.9321705962	-0.418962
C	 0.0019571714	 0.1975230578	-0.1197268701	-0.098669
C	-1.3328454224	-0.4717941524	 0.0782935611	-0.003347
C	-1.8728290867	-1.4389558889	-0.9462690777	-0.282859
C	-1.4809613953	-1.9369108809	 0.424542725	-0.006251
C	-0.308397975	-2.8795345888	 0.6128483062	-0.227393
C	-0.7152839154	-4.3530405587	 0.4091757808	-0.264293
C	 0.4265349235	-5.2957434107	 0.7069399185	 0.157934
O	 0.8836112054	-6.0990439838	-0.06461601	-0.237241
H	 0.624730356	 1.8198326036	-1.0001558894	 0.285242
H	 0.7140919574	-0.4938877199	-0.5953544439	 0.082503
H	 0.426612716	 0.4806849046	 0.8573848607	 0.085652
H	-2.0621855456	 0.1896903664	 0.5380864955	 0.092355
H	-2.9223798333	-1.3896411813	-1.213302041	 0.113629
H	-1.2165970403	-1.694367727	-1.773323111	 0.114167
H	-2.3098121602	-2.1555579173	 1.0948672946	 0.083437
H	 0.4953884927	-2.635621638	-0.0901119558	 0.111746
H	 0.1123962631	-2.7570657808	 1.6203631709	 0.102655
H	-1.5347327656	-4.5948592269	 1.1020441256	 0.116232
H	-1.0677576324	-4.5317895775	-0.6102439047	 0.126131
H	 0.8483838953	-5.1894567948	 1.735542941	 0.067335
