15
gdb 39786	3.1083	1.90653	1.54258	1.7013	63.19	-0.253	0.0579	0.3109	860.4201	0.11272	-457.657289	-457.651011	-457.650067	-457.687724	25.724	
C	 0.0120832356	 1.4919109185	 0.0092468811	-0.296347
O	 1.2585217835	 0.7527306949	-0.0076877299	-0.260047
C	 0.0673693421	 0.0394497719	 0.0017248538	 0.540479
C	-0.525348477	-0.9740511458	 0.995452696	-0.104516
O	-1.6151482254	-1.121180409	 0.0142882068	-0.295456
C	-0.5466922154	-0.9645874165	-0.9886454872	-0.104516
C	 0.2762989138	-2.2524619529	-0.7441591166	 0.043884
O	 1.4978489833	-2.0418090566	-0.0235945521	-0.234444
C	 0.2920656428	-2.2594488056	 0.7210473537	 0.043882
H	-0.1967350428	 2.0252232582	 0.9347317569	 0.124922
H	-0.216542724	 2.034002751	-0.9064037492	 0.124922
H	-0.8593869518	-0.7423525159	 2.004888042	 0.091702
H	-0.9023454867	-0.7233037463	-1.9884046535	 0.091702
H	 0.2203573651	-3.1258180392	-1.3832986605	 0.116915
H	 0.2497997769	-3.1388656067	 1.3528855187	 0.116915
