15
gdb 35501	3.20158	1.48413	1.24645	4.873	68.49	-0.2654	-0.0029	0.2625	990.2092	0.115032	-416.820879	-416.81387	-416.812926	-416.853052	26.249	
N	-0.7162174563	-1.0108281011	-0.7179370168	-0.325722
C	-0.4139645142	 0.0596585858	-0.4038788737	 0.299178
C	-0.0658118166	 1.4049090754	 0.0193277154	-0.175964
C	-0.059951645	 1.6932186346	 1.564815865	-0.26507
C	 1.3648236076	 2.2791079213	 1.448526813	 0.080131
O	 2.381145129	 1.4930289545	 2.1038137004	-0.222583
C	 2.8444913247	 0.6512541235	 1.1430429264	 0.117209
N	 2.4102421994	 0.7366826774	-0.0466363038	-0.244678
C	 1.4428378367	 1.8342128334	-0.0437617618	-0.021466
H	-0.695762132	 2.1168272073	-0.5208355422	 0.129338
H	-0.835000861	 2.3839899419	 1.8995664011	 0.127579
H	-0.0919363513	 0.7934390176	 2.1802719299	 0.141939
H	 1.5034735551	 3.3231296941	 1.7267624261	 0.104164
H	 3.5905804085	-0.0549681767	 1.4887889266	 0.155628
H	 1.6778812056	 2.5601341609	-0.8244331157	 0.100317
