25
gdb 122163	3.07503	0.71755	0.65269	1.2962	90.23	-0.2481	0.0777	0.3258	1884.4545	0.226545	-389.489004	-389.477782	-389.476838	-389.525681	41.355	
C	-0.2873722607	 1.5886694499	 0.0973778831	-0.381331
C	 0.0571726071	 0.1032332096	-0.0386098049	-0.165282
C	 0.6508116299	-0.4975064467	 1.2399474354	-0.170117
C	 1.0087482605	-1.9840820593	 1.1044555334	-0.247824
C	 1.5884461166	-2.5804071473	 2.3730952222	 0.405633
O	 2.8047638162	-1.9907986863	 2.7755202109	-0.475565
C	 0.6832831706	-3.0797083652	 3.4791539404	-0.35505
C	 1.5310077702	-4.0510001958	 2.6738947775	-0.033714
C	 0.9060817901	-5.0802153846	 1.7586106203	-0.414078
H	 0.60238476	 2.1808885791	 0.3392564317	 0.113242
H	-0.7102243973	 1.9880961068	-0.8297343282	 0.111663
H	-1.019724742	 1.75404195	 0.8955951773	 0.112719
H	-0.8444246013	-0.4587260411	-0.3166586446	 0.09412
H	 0.7662142583	-0.0354081473	-0.8653363289	 0.09702
H	 1.5512122262	 0.0706681177	 1.5117141713	 0.086946
H	-0.0598247746	-0.3680905029	 2.0682242924	 0.092887
H	 0.113031776	-2.542546109	 0.8111335914	 0.091955
H	 1.7390862144	-2.1091806801	 0.2940588289	 0.100403
H	 2.6058049817	-1.1175079147	 3.1297599498	 0.28028
H	 0.9783652462	-2.8743054678	 4.5023819606	 0.106818
H	-0.3890477063	-3.0793811579	 3.30511094	 0.103031
H	 2.4206712339	-4.3959976668	 3.1937539076	 0.095177
H	-0.0183985635	-4.716891077	 1.3003878733	 0.114487
H	 1.5885575499	-5.3665022865	 0.9505671728	 0.119356
H	 0.6547686979	-5.988037107	 2.3180577364	 0.117222
