18
gdb 18278	4.24874	1.58236	1.3188	2.6911	67.04	-0.2477	0.0814	0.3291	953.9953	0.155508	-384.928106	-384.920839	-384.919895	-384.959604	28.125	
O	 0.0465039111	 1.3895906325	-0.1260754717	-0.425273
C	 0.0744048379	-0.0176039785	 0.0156172453	-0.065823
C	-1.3323832045	-0.5971802643	 0.0876220319	 0.097018
O	-2.0013943827	-0.2042338367	-1.1194641979	-0.285933
C	-3.0671755747	-1.1183204069	-1.368650514	-0.093379
C	-2.5979744199	-2.4489015205	-0.8075666349	-0.052195
C	-1.1893208736	-2.8498972416	-1.1572472561	-0.289999
C	-1.4622228382	-2.1101040835	 0.130798668	-0.065306
H	-0.550036983	 1.5686421325	-0.8622519718	 0.292153
H	 0.6208251863	-0.4983673076	-0.8104155069	 0.08745
H	 0.6112497533	-0.2347369031	 0.9452608254	 0.103956
H	-1.8488471929	-0.1593247186	 0.9583981247	 0.07313
H	-3.991024214	-0.7964481873	-0.8619579518	 0.095132
H	-3.2478333979	-1.1192912339	-2.448831403	 0.109471
H	-3.3355114624	-3.2040304308	-0.5633057308	 0.091466
H	-0.9358683993	-3.900924827	-1.0778400536	 0.113369
H	-0.6905073038	-2.324304402	-1.9650844019	 0.123148
H	-1.3387261516	-2.6154150228	 1.0810718191	 0.091616
