21
gdb 58841	3.12398	1.2977	1.08305	1.4179	82.79	-0.2245	0.0226	0.2471	1188.2977	0.182585	-387.08981	-387.081079	-387.080135	-387.122818	34.552	
C	-0.2635390311	 1.5324230871	-0.0811474433	-0.41058
C	 0.0726555415	 0.0430500443	 0.0215329314	 0.020389
O	-1.0876760733	-0.7228352502	 0.3350988086	-0.428342
C	 0.7874521181	-0.4758372774	-1.2189298011	 0.364629
C	-0.0071344954	-0.9855137707	-2.3941388943	-0.335128
C	 0.8229986834	-1.9552762121	-1.5678010155	-0.123005
C	 2.1958805511	-2.2134705649	-2.0875021831	-0.069846
C	 2.9348923113	-1.1017862492	-2.100044115	-0.087137
C	 2.185563651	 0.0821182288	-1.5227668928	-0.343084
H	 0.6383821322	 2.1363474199	-0.2193050976	 0.123714
H	-0.9209356656	 1.719219551	-0.9395993578	 0.109987
H	-0.7706830553	 1.8705808538	 0.8269519161	 0.120735
H	 0.74072999	-0.109308171	 0.8800182019	 0.087163
H	-1.8046168367	-0.4137104849	-0.2285151581	 0.279866
H	-1.0843943282	-1.0491927578	-2.2779558337	 0.091779
H	 0.3282213442	-0.7558073003	-3.4006611047	 0.106705
H	 0.2982901596	-2.6865829488	-0.9646503049	 0.09786
H	 2.5181145037	-3.1870438691	-2.4395768079	 0.093118
H	 3.944361519	-1.0180413952	-2.4865093978	 0.091194
H	 2.1583018397	 0.9332280622	-2.2153350097	 0.107467
H	 2.6714232408	 0.4505730946	-0.6066614108	 0.102517
