16
gdb 54963	3.27925	1.09483	0.98951	4.6027	73.92	-0.2331	0.0015	0.2346	1217.6013	0.121925	-437.871231	-437.862093	-437.861149	-437.904966	34.396	
N	-0.0533408211	 1.2044731152	 0.3505347184	-0.535616
C	-0.011643277	-0.0501857551	-0.1648521984	 0.460883
O	 1.0369145092	-0.5422701613	-0.5803283774	-0.411909
C	-1.2976673552	-0.7951548553	-0.1811120708	-0.230673
C	-1.5536415913	-1.7529155649	-1.3359629679	-0.335435
C	-1.193356225	-2.3395133837	-0.0012237557	 0.219767
O	 0.0454562246	-2.9217337359	 0.1997061501	-0.459715
C	-2.2373787661	-2.9502908032	 0.7809132473	 0.313748
C	-3.1252064314	-3.4476073679	 1.4200295982	-0.432981
H	 0.8087603348	 1.7195751206	 0.4236185926	 0.268123
H	-0.8972634956	 1.6099985758	 0.7138121861	 0.266658
H	-2.1581469772	-0.3138533123	 0.2692179252	 0.099613
H	-2.5727928127	-1.8389579389	-1.6927456005	 0.130603
H	-0.7764939284	-1.7966932154	-2.0914972374	 0.142132
H	 0.705412841	-2.2924584288	-0.1531668151	 0.307445
H	-3.9008796785	-3.8989400291	 1.9876201652	 0.197357
