18
gdb 33881	3.29249	1.53069	1.32003	4.4739	79.99	-0.2658	0.0325	0.2983	999.7481	0.151029	-364.793141	-364.786375	-364.785431	-364.824137	28.117	
N	 0.0952057937	-1.0726638246	 0.0556489733	-0.354668
C	 0.0438942531	 0.083960817	 0.0285681139	 0.222338
C	-0.0414463477	 1.5116682141	 0.0010856232	 0.18918
C	 0.3781197513	 2.2675869116	-1.251332767	-0.357739
C	 1.2002460974	 2.418901202	-0.005756107	-0.064459
C	 0.7912781167	 3.4212490035	 1.0907435958	-0.043869
C	-0.7005961097	 3.7312433244	 0.7945418262	-0.246068
C	-0.8757008848	 2.2211449752	 1.100244554	-0.089747
C	 0.2371917993	 2.4400932237	 2.1841297715	-0.216613
H	 0.8151625676	 1.6485979138	-2.0277422108	 0.137085
H	-0.2413013374	 3.0693218714	-1.6323187428	 0.128784
H	 2.1948920644	 1.9904547005	 0.0241337461	 0.115324
H	 1.5067606721	 4.208774466	 1.3255536977	 0.074697
H	-1.1425636633	 4.3405164194	 1.5846727452	 0.10953
H	-0.9970993253	 4.1349227542	-0.1736842178	 0.100267
H	-1.8448300689	 1.7824140122	 1.3325787547	 0.082951
H	 0.8532164367	 1.5794323235	 2.4562488552	 0.11111
H	-0.127757695	 2.9510822322	 3.0784181089	 0.101897
