19
gdb 91138	2.67223	1.70317	1.47169	1.2467	73.15	-0.2411	0.0597	0.3009	970.0412	0.160578	-422.95809	-422.950519	-422.949575	-422.990636	29.797	
O	 0.3058321269	 1.1678636165	-0.6930142775	-0.440471
C	 0.0678904496	-0.1032836457	-0.1309562079	 0.152075
C	 0.27247428	-0.3229173668	 1.3956519505	-0.302724
C	-1.0740692668	-1.090253935	 1.4534360543	-0.045522
C	-2.3138679631	-0.2508379672	 1.8933146407	 0.111176
O	-2.04911735	 1.1285993227	 2.2348597787	-0.293168
C	-2.4439274548	 1.5743371669	 0.909980048	-0.100927
C	-2.6133697998	 0.1259061916	 0.42005107	-0.08418
C	-1.3735027692	-0.7047861738	-0.0414926358	-0.08058
H	 0.2995457425	 1.8144367679	 0.0181195087	 0.287833
H	 0.6830387586	-0.8076777744	-0.7026493403	 0.08751
H	 1.1638937885	-0.8906590836	 1.6687941352	 0.103223
H	 0.2450210381	 0.6011051318	 1.9808439834	 0.116121
H	-1.0494383463	-2.1235583342	 1.7999974071	 0.065259
H	-3.0217534867	-0.7172110347	 2.5845502725	 0.075248
H	-3.3872592025	 2.1331377244	 0.9556081397	 0.104445
H	-1.689457065	 2.1969253862	 0.423277119	 0.097507
H	-3.5473214163	-0.1159612485	-0.0858592201	 0.079465
H	-1.6117928036	-1.4494478541	-0.8024074361	 0.067708
