20
gdb 16659	2.77934	2.21407	1.68625	1.4392	73.76	-0.2574	0.0706	0.328	878.4493	0.178514	-349.007352	-348.999653	-348.998709	-349.038695	30.767	
C	-0.8224479815	 1.2198626673	 0.0089438137	-0.392844
C	 0.0285805406	-0.0518345093	-0.0018249095	 0.025597
C	 0.9691250578	-0.2043468012	-1.1952507545	-0.034652
C	 2.2787827803	 0.5489348861	-1.1807454661	-0.288396
C	 2.2313804644	-0.8901902574	-0.724576501	-0.03507
C	 2.0825898974	-1.1575076203	 0.7672072249	-0.240376
C	 0.9320521392	-0.2383895708	 1.2448527552	 0.073065
O	 1.3988363203	 1.0430927829	 1.6692247595	-0.42146
H	-0.1938819745	 2.1122766077	 0.0276118658	 0.133319
H	-1.4549745139	 1.2620561189	-0.8838412939	 0.10294
H	-1.4772091772	 1.2528174755	 0.8860146202	 0.107203
H	-0.6481115118	-0.9179278992	-0.0191446587	 0.069804
H	 0.5256416944	-0.4438232601	-2.1562676214	 0.07323
H	 2.7417366819	 0.7401215996	-2.1433422913	 0.09961
H	 2.4272597979	 1.324758055	-0.4399393478	 0.129637
H	 2.7231549367	-1.641827887	-1.3326042872	 0.075128
H	 1.805111731	-2.2069309415	 0.926725906	 0.09649
H	 2.9983643687	-0.977392567	 1.3446393303	 0.084116
H	 0.3662699672	-0.7032009088	 2.0650739158	 0.06175
H	 2.0162050413	 0.9029474995	 2.3936367902	 0.280909
