22
gdb 22121	2.66934	0.86699	0.76219	1.2716	82.93	-0.2342	0.0187	0.2529	1606.5308	0.190088	-441.444833	-441.433329	-441.432385	-441.483019	40.129	
C	 0.1789238917	 1.5513367275	-0.0659088507	-0.238978
O	-0.0350483274	 0.1589644449	-0.1047438398	-0.242614
C	 0.6143513594	-0.5170505171	-1.1774290976	 0.144042
C	 2.1064862843	-0.7149712437	-0.8953282225	-0.403029
C	-0.0994741766	-1.8646033033	-1.3764123698	-0.282888
C	-1.5372913879	-1.7446067878	-1.8266928191	 0.356348
C	-2.6168049018	-1.4992499721	-0.8089940506	-0.487429
N	-1.7221635828	-1.882394722	-3.0849875899	-0.17333
O	-3.0756999063	-1.764402149	-3.4492893908	-0.400467
H	 1.2271662551	 1.8135604055	 0.1373979704	 0.107704
H	-0.1203965332	 2.0342049953	-1.0089852647	 0.108017
H	-0.438052175	 1.9487906386	 0.7439462177	 0.127136
H	 0.4921512613	 0.0745555956	-2.0993988557	 0.076721
H	 2.6170713465	 0.2407714802	-0.74800968	 0.116394
H	 2.2455625543	-1.3197853297	 0.0065406211	 0.122935
H	 2.5918061082	-1.2236895756	-1.733930559	 0.119049
H	 0.4532597714	-2.4308529639	-2.1305246553	 0.115759
H	-0.0522509084	-2.4201174865	-0.4314306327	 0.106737
H	-2.2354260897	-0.8548322194	-0.0158027874	 0.149007
H	-3.4987295647	-1.0541243507	-1.2697340214	 0.145112
H	-2.9210852409	-2.4503566733	-0.3530261559	 0.131446
H	-3.0319163876	-1.8704677334	-4.4049417361	 0.302328
