19
gdb 69502	3.0902	1.41474	1.2755	0.8837	74.37	-0.2522	0.073	0.3251	1067.097	0.158618	-423.007907	-422.999808	-422.998864	-423.03985	32.691	
C	-0.1414460883	 1.5386012597	 0.0919976428	-0.495443
C	 0.1374475375	 0.0673797496	-0.0378006831	 0.418794
O	-0.5254351263	-0.7936957146	 0.9105872419	-0.300541
C	 0.9097795895	-0.7444400926	 0.9239722486	-0.019043
C	 1.5994336473	-1.8899415802	 0.2011742092	-0.329623
C	 1.1462304398	-1.7907814837	-1.2645410829	 0.386947
O	 2.1001885911	-2.0768734632	-2.2451097711	-0.465456
C	-0.3095189002	-1.9462978867	-1.6031856707	-0.349684
C	 0.2840794752	-0.5590254374	-1.4119808915	-0.15801
H	 0.6160766246	 2.1243478031	-0.4395669265	 0.124881
H	-1.1188097183	 1.787007848	-0.3358196738	 0.13025
H	-0.1430523748	 1.8382721211	 1.1428638508	 0.128606
H	 1.343603702	-0.3384626014	 1.8356571206	 0.091222
H	 2.6841116065	-1.7390371925	 0.230015991	 0.114711
H	 1.3819822528	-2.8604165818	 0.6609507725	 0.108451
H	 2.0661091692	-3.022121028	-2.4272409242	 0.282883
H	-0.5255757381	-2.2297260816	-2.6280701252	 0.10633
H	-1.0001954536	-2.3064579947	-0.850739809	 0.133536
H	 0.3887490541	 0.090065877	-2.2727587093	 0.091188
