19
gdb 121012	3.24142	1.08735	0.86408	2.8242	79.19	-0.2217	-0.0504	0.1714	1365.6402	0.158502	-423.054123	-423.045093	-423.044149	-423.088914	32.621	
C	 0.0251869485	 1.503524405	-0.0199353045	-0.385589
C	-0.1016686209	-0.0062726694	 0.0808657188	-0.047963
O	 0.7645245966	-0.448711184	 1.1238780718	-0.257702
C	 0.7969033151	-1.8422509267	 1.3110423856	 0.023665
C	 2.0161570257	-2.2415757292	 2.1612857135	-0.303228
C	 1.4509039856	-3.157388282	 3.2161196298	-0.053248
C	 0.1141815593	-3.2353636817	 3.1909907761	-0.164442
C	-0.4228601924	-2.3914883913	 2.1033031473	 0.363306
O	-1.5839527748	-2.1507879239	 1.8597393141	-0.333777
H	 1.059687807	 1.7930943424	-0.2267425554	 0.120543
H	-0.6106659818	 1.8832947724	-0.8252620588	 0.115532
H	-0.2831458414	 1.9777198644	 0.916195399	 0.127956
H	-1.1336645125	-0.3048056783	 0.2933143557	 0.129128
H	 0.1968422341	-0.486265243	-0.8669006937	 0.080883
H	 0.8181038827	-2.3619017681	 0.3378838406	 0.087039
H	 2.8103986074	-2.7227555973	 1.5807448334	 0.118868
H	 2.4530279148	-1.3425555106	 2.6114057056	 0.142255
H	 2.0911165029	-3.6784421782	 3.9205874054	 0.118514
H	-0.5209055561	-3.7984212705	 3.8628990258	 0.11826
