23
gdb 36976	5.75202	0.61065	0.57794	1.6787	86.98	-0.2617	0.0895	0.3512	1960.9747	0.205751	-388.260598	-388.251139	-388.250195	-388.296234	34.818	
C	-0.0191666895	 1.5968441296	-0.272698851	-0.220042
C	-0.0125760214	 0.0970011225	 0.057501256	-0.205689
C	-1.3953570651	-0.5372280804	 0.0081324344	 0.060668
C	-2.1140070548	-0.700794764	-1.3648208006	-0.216706
C	-2.6311812893	-2.0839405341	-0.8862558388	-0.210978
C	-1.5275962235	-2.074403948	 0.2053316134	-0.236514
C	 1.3623319568	 2.2018709421	-0.234597961	 0.100466
C	 1.6219620007	 3.5603983684	 0.2560300849	-0.18165
O	 1.9280725674	 2.421817373	 1.0628017052	-0.237623
H	-0.4477936884	 1.7569724849	-1.2713050354	 0.101658
H	-0.6590978721	 2.1312312223	 0.4399519463	 0.099768
H	 0.6490762979	-0.428033573	-0.6463541255	 0.086436
H	 0.4247794388	-0.041867925	 1.0544563322	 0.111934
H	-2.0621354111	-0.0193699684	 0.7092491459	 0.06723
H	-2.8531031469	 0.0506581286	-1.6540845856	 0.092235
H	-1.3877330995	-0.8035776919	-2.1790508394	 0.093883
H	-3.6320178851	-2.0125928278	-0.450463836	 0.10069
H	-2.6271518498	-2.9051209877	-1.6068600647	 0.094534
H	-0.6237700861	-2.5934471764	-0.1315142389	 0.096459
H	-1.7854754785	-2.4413647144	 1.2019869003	 0.094076
H	 2.073122228	 1.7838561209	-0.951428426	 0.087345
H	 2.4816742542	 4.119029296	-0.1123534828	 0.111587
H	 0.7903340673	 4.1711442829	 0.6065709371	 0.110232
