18
gdb 11786	4.12722	1.71342	1.56614	1.4277	72.09	-0.2203	0.0204	0.2407	881.2434	0.154842	-347.762492	-347.75537	-347.754426	-347.79371	28.306	
O	-0.0479140503	 1.4143314179	-0.1502632849	-0.423731
C	 0.023817888	 0.0026058594	 0.0091241684	-0.210197
C	-1.3813826951	-0.5378724132	 0.0022514626	 0.331888
C	-2.3074923792	-0.5118713698	-1.2676358969	-0.234801
C	-3.0990617358	-1.5678656828	-0.4217835361	-0.075547
C	-1.6924318185	-2.0757984269	 0.0471944528	-0.262205
C	-3.4963564613	-0.7063327885	 0.7875141843	-0.094055
C	-2.3777244046	-0.0330939654	 1.0636819732	-0.106473
H	 0.8474751182	 1.7646423823	-0.132848975	 0.287857
H	 0.6064388131	-0.4613166667	-0.8030577606	 0.082185
H	 0.5161238068	-0.2661425872	 0.9590664666	 0.084283
H	-2.8092678432	 0.4287638723	-1.5007947845	 0.100505
H	-1.828483207	-0.9340272213	-2.1580544151	 0.085357
H	-3.841303302	-2.2334998135	-0.8608132918	 0.058315
H	-1.1577132761	-2.6478030026	-0.719231522	 0.087842
H	-1.6333044477	-2.5724069622	 1.018902453	 0.09047
H	-4.4656394331	-0.675898326	 1.2647336653	 0.096107
H	-2.1667567223	 0.7104379146	 1.8184366705	 0.1022
