18
gdb 15073	2.1998	1.99872	1.12478	2.7918	68.56	-0.2457	-0.0255	0.2202	1065.1442	0.151127	-384.918503	-384.909467	-384.908523	-384.952936	31.384	
C	 0.5472742249	 0.9858277771	-0.5817786831	-0.237517
O	-0.3295283718	 0.1915809227	 0.1883933642	-0.251006
C	 0.2826821362	-0.5171417501	 1.2468904862	 0.015285
C	-0.8711816203	-1.0523534471	 2.092063845	 0.150904
O	-0.7502202353	-1.4384673586	 3.2243516157	-0.248803
C	 1.1729123329	-1.658426519	 0.7823587979	-0.003912
C	 2.6704333408	-1.479103512	 0.6711178636	-0.276711
C	 2.0927735257	-2.3263665171	 1.7719021065	-0.260706
H	 1.2766039923	 0.3821650237	-1.1368716169	 0.119842
H	-0.0693199897	 1.5404903718	-1.2930603694	 0.13011
H	 1.0969633131	 1.7039889542	 0.0463948661	 0.105622
H	 0.8739501599	 0.1606307218	 1.8867147198	 0.085352
H	-1.8467262915	-1.0604143386	 1.5577166622	 0.092508
H	 0.6981357432	-2.2971098752	 0.0424583651	 0.094946
H	 3.1818515798	-1.9708621635	-0.1489366399	 0.117382
H	 3.0858067043	-0.5128029815	 0.9388054065	 0.114773
H	 2.1034627354	-1.9362291302	 2.7831754006	 0.13304
H	 2.2051376301	-3.4025750184	 1.7114647998	 0.118891
