19
gdb 35979	3.18528	1.15938	0.9279	4.3986	76.27	-0.2382	0.0271	0.2653	1258.3838	0.161663	-419.20593	-419.197505	-419.19656	-419.239124	31.771	
N	 0.4084118065	-1.1517320651	 0.9460980089	-0.314491
C	 0.2776037328	-0.0985804506	 0.48953208	 0.264589
C	 0.0842035744	 1.260760552	-0.0332622693	-0.110752
C	-0.9840818025	 1.9986679426	 0.8239247918	-0.09251
O	-1.3869677724	 3.1745190441	 0.162781477	-0.243545
C	-0.715372163	 4.372448782	 0.5247961809	-0.071991
C	 0.8217699965	 4.3001524592	 0.466543308	-0.230674
C	 1.372798993	 3.3113732294	-0.5798660538	-0.154686
N	 1.3869031222	 1.9058251242	-0.1693852295	-0.293087
H	-0.3535997815	 1.1753316283	-1.0372556915	 0.139506
H	-1.8681539244	 1.3584030905	 0.9204523921	 0.126361
H	-0.5974057623	 2.1946858009	 1.8340650616	 0.103662
H	-1.0826002275	 5.1105029208	-0.1948438423	 0.117174
H	-1.0374398972	 4.7004132528	 1.5250220411	 0.098362
H	 1.199269213	 5.3092048281	 0.2599727571	 0.106896
H	 1.2318648893	 4.0213196087	 1.4453434805	 0.09854
H	 0.8077395611	 3.3887846843	-1.5157989155	 0.119738
H	 2.4087815745	 3.5802911535	-0.811579847	 0.111121
H	 1.9126942575	 1.8030116043	 0.6929495102	 0.225785
