18
gdb 128829	3.17453	1.10022	0.85732	3.0227	74.92	-0.251	-0.0052	0.2458	1348.5657	0.146531	-439.072925	-439.063707	-439.062763	-439.107774	32.194	
C	 0.2068163507	 1.3532443509	-0.1322008738	-0.223211
O	 0.3078112722	-0.052281139	-0.1584014918	-0.234854
C	 0.3309911269	-0.6171216016	 1.1378741356	-0.185341
C	 0.4741358095	-2.1006958504	 1.0112680455	 0.324471
N	-0.3794155825	-2.8913184469	 1.616040047	-0.206384
O	 0.0325308479	-4.1836897645	 1.325022013	-0.170002
C	 1.1230861149	-4.1197852423	 0.5417740977	-0.001492
C	 1.4753252845	-2.8323475818	 0.2948411685	 0.085725
C	 2.6108146333	-2.2955927376	-0.5168282584	-0.511331
H	 1.0609528739	 1.8143517034	 0.388784361	 0.105452
H	 0.1955858412	 1.6974935251	-1.168747234	 0.131338
H	-0.7180477785	 1.6851630072	 0.3641445182	 0.111343
H	 1.1771224338	-0.2044681914	 1.7153207127	 0.099546
H	-0.5903204691	-0.3888345265	 1.6935317489	 0.12031
H	 1.5380747876	-5.068489946	 0.2367709108	 0.146332
H	 2.2489309534	-1.5928383155	-1.2716449805	 0.153327
H	 3.3292575489	-1.7535254418	 0.1093249876	 0.130243
H	 3.1519949315	-3.1017903612	-1.0188112779	 0.124528
