20
gdb 40294	2.62125	1.57919	1.21223	1.0878	75.18	-0.2415	0.0801	0.3216	1082.7929	0.173163	-440.245446	-440.237491	-440.236547	-440.277803	31.286	
C	 0.0153009327	 1.5322986973	-0.0940878088	-0.299387
N	 1.2567456586	 0.7492723633	-0.1671883747	-0.332844
C	-0.0270146214	 0.0545071947	 0.0584176028	 0.291551
C	-0.2019698327	-0.5357323477	 1.449499613	-0.128884
O	-0.1184407148	-1.9500837689	 1.490153812	-0.254307
C	 0.9711270221	-2.5193930553	 0.7781725808	-0.100423
C	 0.5797148146	-2.8612849606	-0.6606204258	-0.066703
O	 0.4240945166	-1.7460035993	-1.5199272937	-0.243363
C	-0.5400684273	-0.7937073941	-1.0955924665	-0.175535
H	-0.072754307	 2.1678058544	 0.7838402668	 0.118087
H	-0.3952581693	 1.9646608511	-1.0032892833	 0.113319
H	 1.5434276657	 0.616168126	-1.134996384	 0.236592
H	 0.5436870393	-0.0740481269	 2.1137165432	 0.103285
H	-1.2005529336	-0.3022608601	 1.8361294917	 0.107306
H	 1.8498666912	-1.8611685191	 0.7949469443	 0.121725
H	 1.2296500325	-3.4516213667	 1.2948750877	 0.104152
H	 1.3610070427	-3.4786447272	-1.1173508594	 0.105184
H	-0.3519617015	-3.4491544952	-0.6276318153	 0.095639
H	-1.4827912911	-1.2897392261	-0.8197767365	 0.103577
H	-0.7262166873	-0.1622647897	-1.9705308544	 0.10103
