17
gdb 82968	3.0007	1.91032	1.54711	2.4733	71.22	-0.2451	-0.0175	0.2275	887.9632	0.139091	-417.951861	-417.945317	-417.944373	-417.982516	26.914	
O	 0.2202746474	 1.3907211577	-0.2930874426	-0.422765
C	 0.034041775	 0.0532761372	 0.0014599054	 0.096931
C	-1.3870375075	-0.6585658246	-0.0739027036	-0.037623
C	-2.2680504163	-0.4397291776	-1.3411129145	-0.281267
C	-1.5892587498	-1.7001888967	-1.9922416037	 0.003493
C	-0.5287160569	-1.4492359428	-3.0850300559	-0.178012
N	 0.4844199672	-0.6344959355	-2.3539205431	-0.268681
C	 0.2933511917	-0.9242818349	-1.1282720187	 0.147586
N	-0.7331554274	-1.854991296	-0.7605295454	-0.127361
H	 0.2787234784	 1.4501091943	-1.2576654804	 0.297995
H	 0.4863220241	-0.1742876835	 0.9702018537	 0.120118
H	-1.8929078643	-0.8371648616	 0.8766354721	 0.09091
H	-3.3326344138	-0.5707000473	-1.1434037936	 0.120655
H	-2.1256975963	 0.5111385835	-1.8595851051	 0.118248
H	-2.2567789837	-2.5414568664	-2.1860741683	 0.086719
H	-0.1131500547	-2.3932840703	-3.461854389	 0.118195
H	-0.9025332131	-0.8796198255	-3.9411469372	 0.11486
