17
gdb 132575	3.07812	1.3092	0.92905	2.1534	79.19	-0.2428	-0.0232	0.2196	1223.7663	0.135243	-426.049213	-426.040586	-426.039642	-426.083369	31.166	
C	-0.0491918004	 1.5143713487	-0.0221128766	-0.46583
C	-0.0416661348	 0.0075363609	 0.0105072232	 0.327127
N	-0.1550975425	-0.6163433402	-1.1703051793	-0.323768
C	-0.1522464255	-1.9486070096	-1.1798278054	-0.105178
C	-0.0372457952	-2.7026915232	-0.0228106014	 0.175067
F	-0.0410036852	-4.0410380393	-0.1005740306	-0.076712
C	 0.0823723567	-2.0928445924	 1.2212349685	 0.173655
C	 0.2069737496	-2.9123698383	 2.4752702442	-0.498068
C	 0.0773663402	-0.698744191	 1.2103382247	-0.23637
H	 0.0480702917	 1.9420589291	 0.978699613	 0.115855
H	 0.7724852887	 1.8872764112	-0.6417867082	 0.139803
H	-0.9779397403	 1.8823400831	-0.469676137	 0.139791
H	-0.2444550282	-2.4508625926	-2.1395873991	 0.118281
H	 1.0873264078	-3.5623218882	 2.4346111968	 0.145701
H	 0.2911625405	-2.2715334013	 3.3555450022	 0.12839
H	-0.6611512556	-3.5670243374	 2.6052741894	 0.145702
H	 0.1672816126	-0.1590901096	 2.1480092854	 0.096554
