19
gdb 122796	4.64906	0.55254	0.49995	1.6878	74.59	-0.2532	-0.0959	0.1573	2124.5263	0.15498	-460.170502	-460.159799	-460.158854	-460.208359	35.421	
C	-0.1410950953	 1.3893324422	 0.2058530154	-0.228564
O	-0.0692708627	 0.0112137238	-0.0677899453	-0.229578
C	-1.2924204827	-0.6559387397	 0.1403684028	-0.054447
C	-1.0966863849	-2.1305381456	-0.184960198	-0.201623
C	-2.3773567065	-2.9373913605	 0.0130744757	-0.310777
C	-2.2191385107	-4.4050965193	-0.3010863402	 0.281013
O	-1.1975020267	-4.9324341079	-0.6754881004	-0.271576
C	-3.4615198228	-5.2927892137	-0.1283605301	 0.094786
O	-4.5301517652	-4.8802221896	 0.2375724241	-0.219155
H	 0.8480162682	 1.8129841169	 0.0160416812	 0.128672
H	-0.8752255974	 1.8976660045	-0.4397458919	 0.103261
H	-0.4161885532	 1.5851417744	 1.2547253673	 0.10326
H	-1.6264154873	-0.5321491959	 1.1863807004	 0.083485
H	-2.0826914696	-0.2211263862	-0.497931392	 0.083484
H	-0.749121348	-2.2275940501	-1.2183127961	 0.123655
H	-0.2983311652	-2.5347799602	 0.4453241878	 0.123652
H	-2.756935869	-2.8612208064	 1.0418818167	 0.140806
H	-3.203249517	-2.5569097017	-0.6045522814	 0.140803
H	-3.264985384	-6.3569853251	-0.378311956	 0.108843
