24
gdb 123089	6.37365	0.43647	0.41735	3.4111	87.65	-0.2424	0.0363	0.2787	2639.2535	0.215457	-405.602333	-405.590527	-405.589583	-405.641609	40.801	
C	 0.053193353	 1.5881973518	-0.0500667638	-0.379066
C	 0.0245556897	 0.0595789077	 0.0320249668	-0.163395
C	-1.392521542	-0.521285622	-0.0203358379	-0.158617
C	-1.4312099264	-2.0509688137	 0.0607063078	-0.186604
C	-2.8516570008	-2.621196778	 0.0140075632	-0.165198
C	-2.8885226157	-4.1489892457	 0.0915502531	-0.315904
C	-4.3111193039	-4.6963343558	 0.2012455753	 0.406718
N	-4.4715834089	-5.9731025369	-0.2617714899	-0.522594
O	-5.234192162	-4.0578811573	 0.6682567534	-0.357779
H	 1.0771615684	 1.9729817029	-0.0100163974	 0.109196
H	-0.3995000805	 1.9430120789	-0.982775335	 0.11289
H	-0.504617067	 2.0393591857	 0.7781638625	 0.113833
H	 0.6193447073	-0.3628775644	-0.7889822954	 0.091551
H	 0.5151544556	-0.2669255447	 0.9587741529	 0.092599
H	-1.9887494102	-0.0999795245	 0.8009408374	 0.094724
H	-1.8845751693	-0.1941559244	-0.9470439956	 0.091627
H	-0.8357967581	-2.4723831332	-0.7619854898	 0.086945
H	-0.9374298541	-2.3779172619	 0.9870274905	 0.089658
H	-3.4523568836	-2.2212888533	 0.8371425481	 0.123465
H	-3.3512445692	-2.2951615653	-0.90702456	 0.100251
H	-2.3763176223	-4.598554034	-0.7683561577	 0.0987
H	-2.3425320755	-4.4890411471	 0.9832523954	 0.123914
H	-3.6939970353	-6.5339534956	-0.5620862317	 0.255056
H	-5.3607236092	-6.4219029795	-0.1131670522	 0.258031
