12
gdb 4452	3.60408	1.90277	1.25373	4.1263	52.32	-0.1962	0.0461	0.2423	873.6376	0.083364	-451.837298	-451.829277	-451.828333	-451.870731	27.537	
N	 0.1777314211	 1.4627898234	 0.0172452363	-0.611023
C	 0.0050307233	 0.0722221286	 0.0073359065	 0.111335
C	-1.053624425	-0.74791344	-0.0531258577	 0.377137
O	-2.3672300011	-0.4875392822	-0.1282202484	-0.427155
O	-0.670235726	-2.0616678362	-0.0311307347	-0.253174
C	 0.7370418403	-2.1090333806	 0.0492955675	 0.489104
O	 1.3579832133	-3.1348961056	 0.0848759921	-0.399494
N	 1.1244239619	-0.8065987939	 0.0713071294	-0.386772
H	-0.1643325209	 1.9087512716	-0.8260716996	 0.25384
H	-0.2592015293	 1.9087872208	 0.8155170394	 0.253848
H	-2.8361443924	-1.3299791615	-0.1545823772	 0.315794
H	 2.0836954248	-0.5126963944	 0.1263054763	 0.276559
