13
gdb 9998	2.4632	1.73443	1.12587	2.1516	62.05	-0.2637	-0.0504	0.2133	1008.533	0.092634	-398.588912	-398.580497	-398.579552	-398.623107	28.602	
O	 0.0631209994	 0.3767574427	 1.1890124789	-0.315172
C	-0.0241060805	 1.2415369132	 0.3451454395	 0.159563
N	 1.027296933	 1.7367171619	-0.3671241658	-0.260248
C	 2.3390645165	 1.1355239519	-0.2787532831	-0.23115
C	 2.9649450542	 1.0430722082	-1.6790018567	 0.162718
O	 2.433967198	 1.4807367688	-2.6634421112	-0.241699
C	 3.2842787907	 1.8560149175	 0.5799724573	 0.327623
C	 4.101975567	 2.4454792527	 1.233376177	-0.451307
H	-0.9763783157	 1.7323713571	 0.069141124	 0.090263
H	 0.8586512156	 2.3161539418	-1.1772171141	 0.265323
H	 2.2133770138	 0.1163081397	 0.1151718097	 0.163741
H	 3.9634902427	 0.564780634	-1.6996339602	 0.117301
H	 4.8047806653	 2.9655963605	 1.8370596448	 0.213044
