18
gdb 92007	2.37282	1.60642	1.06429	3.4485	72.75	-0.2231	-0.0274	0.1956	1126.1499	0.146491	-439.063954	-439.055471	-439.054527	-439.097772	30.921	
C	-0.2958369736	 1.4806667464	-0.1114834882	-0.326037
N	-0.1844007655	 0.0428952803	 0.0195246588	-0.076351
C	-1.4533799003	-0.6843377786	 0.0796274165	-0.188655
C	-1.0904241459	-2.0027586178	 0.7227547204	 0.035896
O	 0.0573738288	-2.637360672	 0.1508091527	-0.245596
C	 0.2318287294	-1.8543530279	 1.3371640574	 0.0059
C	 0.7127157042	-0.4331431538	 1.0698007533	-0.083934
C	 2.1567185828	-0.4081215155	 0.5794036853	 0.162665
O	 3.0897796234	-0.0258677275	 1.2359888306	-0.24885
H	 0.6978881517	 1.9258098689	-0.2222015898	 0.132201
H	-0.8728779333	 1.726028808	-1.0088462595	 0.125948
H	-0.7891188184	 1.9618162278	 0.7540245091	 0.098178
H	-2.2090800231	-0.1847970448	 0.7149304826	 0.089369
H	-1.8812334166	-0.7927794856	-0.9243820724	 0.118837
H	-1.8598528565	-2.664480087	 1.1092024428	 0.107344
H	 0.5674745775	-2.3850108132	 2.2225117661	 0.115941
H	 0.6587812368	 0.1370588199	 2.0139393736	 0.077673
H	 2.2686689886	-0.7870620676	-0.4585618794	 0.09947
