18
gdb 54538	3.11311	1.3625	1.11949	14.3027	72.65	-0.1691	-0.0175	0.1516	1102.8309	0.150391	-439.047551	-439.03971	-439.038765	-439.080286	30.028	
O	 0.1872672477	 0.0995269764	 0.3162096546	-0.472114
C	 0.1070612674	 1.2618814222	-0.1057774339	 0.301806
O	 0.9304072686	 2.0647757556	-0.576970475	-0.487834
C	-1.3298582127	 1.8887885761	 0.0503962115	 0.224863
C	-1.6996737087	 3.1084988261	-0.7570114428	-0.337348
C	-1.3806139065	 3.2483665671	 0.6961054451	-0.092611
N	-2.551716939	 3.2547693815	 1.637574644	-0.252876
H	-2.1944501538	 3.136607695	 2.5868224625	 0.314686
H	-3.0866565945	 4.1254487246	 1.6214038418	 0.304545
C	-3.4303466253	 2.0532587914	 1.2688931168	-0.232567
C	-2.4563404373	 1.0553801753	 0.6321591625	-0.279318
H	-0.9001433897	 3.4472635866	-1.4077684133	 0.169814
H	-2.7145753493	 3.2755304887	-1.1095777772	 0.094993
H	-0.5110398563	 3.7686767399	 1.0760083032	 0.15005
H	-3.9426009508	 1.7174134295	 2.1726508284	 0.149993
H	-4.1727341638	 2.4274198217	 0.562977578	 0.158215
H	-2.9761216942	 0.4532550446	-0.1177247357	 0.133461
H	-2.0120631819	 0.3668559878	 1.3555099094	 0.152242
