16
gdb 61688	2.24647	1.18187	0.96433	3.2503	75.65	-0.2664	-0.0445	0.2219	1255.6283	0.120045	-400.730167	-400.72021	-400.719266	-400.76551	34.872	
C	-0.1009080952	 1.5930867876	-0.0927633726	-0.40453
C	-0.0248443661	 0.0436231127	-0.0334799215	-0.147537
C	 0.7517914893	-0.4200126967	 1.2411553867	-0.289261
C	 2.1840217712	 0.0808180823	 1.3025424139	 0.141644
O	 2.6598699131	 0.6171715713	 2.2686072482	-0.235141
C	-1.3759476758	-0.5266242757	-0.0038611147	 0.336334
C	-2.488041757	-0.9743398521	 0.0552858129	-0.423817
C	 0.6749403856	-0.4518307259	-1.238666991	 0.296922
N	 1.2441952716	-0.8250158451	-2.1721997491	-0.337778
H	 0.9025501493	 2.0247880213	-0.1311701192	 0.146427
H	-0.6567042753	 1.914259908	-0.975136081	 0.152616
H	-0.6112639693	 1.9605012511	 0.8004296201	 0.145668
H	 0.2171024278	-0.07779112	 2.1297485393	 0.142919
H	 0.7762707592	-1.516494662	 1.2530866412	 0.151479
H	 2.7863296085	-0.1017937208	 0.386050693	 0.111083
H	-3.4706293769	-1.3771408759	 0.0939448837	 0.212973
