20
gdb 75831	2.46311	1.633	1.17825	4.0111	78.6	-0.2368	-0.0109	0.2259	1108.4857	0.170683	-403.170034	-403.161299	-403.160355	-403.203099	33.765	
C	 0.1943992508	 1.6353301904	 0.0179626759	-0.40397
C	 0.1055826322	 0.1092399104	 0.0242313929	-0.134837
C	 0.8413817039	-0.5266584035	-1.1737464204	 0.39122
O	 0.8719214244	-0.0656683237	-2.2840127275	-0.314781
C	 1.513453714	-1.8367120102	-0.731261556	-0.323465
C	 1.5333122375	-1.7407951246	 0.7755681187	-0.095122
N	 2.1739213367	-0.488256822	 1.2386135517	-0.370729
C	 0.6973249908	-0.5950321228	 1.2379333277	 0.326592
C	-0.0562298405	-0.601200193	 2.5421938263	-0.495301
H	 1.2183241176	 1.9499299753	 0.2379502288	 0.136827
H	-0.0786275377	 2.0173193288	-0.9689095968	 0.136617
H	-0.4743404725	 2.0792210703	 0.7614888185	 0.107006
H	-0.9482279143	-0.1962268731	-0.0757382487	 0.094422
H	 0.9041202531	-2.6818268301	-1.0770415052	 0.123613
H	 2.501913457	-1.9270607817	-1.1888364093	 0.136671
H	 1.6322098802	-2.6354922661	 1.3823305702	 0.087172
H	 2.5242535012	-0.612746402	 2.1856124991	 0.22845
H	-0.1327398814	 0.4088265018	 2.9607623744	 0.1305
H	-1.0750407356	-0.9815053605	 2.4087135386	 0.12481
H	 0.4438219827	-1.2345385037	 3.2830438609	 0.114306
