17
gdb 10554	2.83657	1.64043	1.27083	2.023	70.65	-0.239	0.046	0.2849	1004.3863	0.140577	-363.792448	-363.783694	-363.78275	-363.825813	32.038	
O	-0.3018709245	 0.5800584172	-1.1203871489	-0.418505
C	-0.0763165958	 0.2498731962	 0.2486074474	-0.068309
C	-1.2871017926	-0.5386007476	 0.7398155335	-0.280043
C	-1.3477097787	-1.9575552057	 0.1799692558	 0.101861
C	-2.6534568053	-2.4626901194	-0.3504511524	-0.277366
N	-1.5694683737	-2.1378181398	-1.275436737	-0.331545
C	-0.4137053056	-2.8815306205	 0.7803599425	 0.347174
C	 0.3672224382	-3.620731049	 1.3190752751	-0.460916
H	 0.5420542616	 0.7880839703	-1.5302400148	 0.292575
H	 0.8334473303	-0.3543410149	 0.369428359	 0.109423
H	 0.0431121172	 1.1629630219	 0.8513007525	 0.089851
H	-1.2707865503	-0.582069308	 1.833959705	 0.112427
H	-2.1900446734	 0.0097588779	 0.4470584024	 0.107746
H	-2.8854013654	-3.5205047357	-0.2719252193	 0.124717
H	-3.5103903172	-1.7976167561	-0.2695451405	 0.112138
H	-1.6891354626	-1.215420513	-1.6869841842	 0.245803
H	 1.0524436981	-4.289188314	 1.7784050338	 0.192971
