20
gdb 40705	3.27974	1.02607	0.85338	1.8838	81.51	-0.2382	0.0819	0.3201	1391.9187	0.170425	-403.071534	-403.062883	-403.061939	-403.10572	32.416	
C	 0.0008812251	 1.4760733115	-0.0590605608	-0.189268
O	 1.2062893485	 0.7119867281	-0.0005088254	-0.243735
C	-0.0448068879	 0.0094202253	-0.0112212997	 0.094972
C	-0.4013046822	-0.7223309066	 1.2371710566	-0.060157
C	-1.6470183186	-1.5850601677	 1.2798972131	-0.33065
C	-0.2886763101	-2.2285459716	 1.3072781805	 0.050618
N	 0.1276479391	-2.9283819816	 0.1248616048	-0.0645
C	 1.4511944422	-3.5436252291	 0.1619205131	-0.217749
C	 0.2214729326	-4.3818500913	 0.2248845226	-0.224574
H	-0.233391107	 2.0495923402	 0.8377547692	 0.106962
H	-0.1816628921	 1.9967195614	-0.9986998294	 0.110097
H	-0.2411277954	-0.5322910941	-0.9346389628	 0.104963
H	-0.1464869251	-0.1843755755	 2.1455982984	 0.089968
H	-2.2493126283	-1.5827835286	 2.1811983877	 0.113193
H	-2.2066383417	-1.6909598821	 0.3567372669	 0.123188
H	 0.0483471945	-2.644767946	 2.2611230373	 0.072597
H	 2.0289663721	-3.4753037908	-0.7549798488	 0.121284
H	 2.0331489201	-3.4409772689	 1.0759511209	 0.114521
H	-0.020790335	-4.8414445055	 1.1816468002	 0.1109
H	-0.1145281907	-4.9382536672	-0.6454532045	 0.117372
