19
gdb 39753	3.15172	1.62884	1.44919	1.9508	77.67	-0.2465	0.085	0.3315	972.6316	0.161349	-385.848143	-385.841273	-385.840329	-385.879175	28.581	
C	 0.0544423013	 1.5179843642	 0.0225678613	-0.283681
O	 1.1836827601	 0.6219259275	 0.0017859044	-0.295624
C	-0.1196139559	 0.0652325126	 0.0218519978	 0.493144
C	-0.5160890068	-0.9132888446	 1.096907884	-0.166684
C	-1.8828896455	-1.5122687496	 0.7702838036	-0.043716
C	-2.8269051856	-0.749527566	-0.1615612161	-0.238081
C	-2.0328026888	-0.6397118303	-1.4933640366	-0.209267
C	-0.5813520468	-0.917399078	-1.0757107566	-0.145494
C	-0.6711975808	-2.0061618411	 0.0406452942	-0.079907
H	-0.0725720091	 2.0819893866	 0.9461598682	 0.110655
H	-0.0962686746	 2.090975606	-0.8920988209	 0.109953
H	-0.0865111473	-0.9695308142	 2.0901118818	 0.091664
H	-2.3004768636	-2.1284079748	 1.5595541207	 0.086407
H	-3.7657834882	-1.2950911472	-0.2960915474	 0.098852
H	-3.083916055	 0.2360887433	 0.2403071368	 0.102916
H	-2.367444301	-1.4016791923	-2.2059935275	 0.099671
H	-2.1492546062	 0.3359291501	-1.9755118498	 0.097786
H	 0.1338712515	-1.057494172	-1.8859810173	 0.081138
H	-0.2886285176	-3.0170063903	 0.0213765292	 0.090267
