23
gdb 117946	3.24149	0.83921	0.7084	3.5519	84.84	-0.2234	0.0699	0.2933	1700.1624	0.204198	-421.647653	-421.635873	-421.634929	-421.686123	40.052	
C	-0.0245410371	 1.5843742414	 0.0612847627	-0.378576
C	 0.0300853193	 0.0548983948	 0.0395248686	-0.168015
C	-1.367847202	-0.5738976034	-0.0268667347	-0.155287
N	-1.3557266439	-2.0330764081	-0.0271208984	-0.118599
C	-1.2926172965	-2.7374919256	 1.2388014369	-0.356975
C	-1.3175614121	-2.6750809873	-1.2469726194	 0.496105
O	-1.2173071746	-2.0695916434	-2.3057101338	-0.434013
N	-1.36718149	-4.0580167868	-1.1924824084	-0.370574
C	-1.4866060262	-4.7993197565	-2.4361916282	-0.315759
H	 0.9793873493	 2.0176333062	 0.097375906	 0.114043
H	-0.5227274228	 1.9733305335	-0.8334379646	 0.122452
H	-0.5767163445	 1.9530572488	 0.933623272	 0.109145
H	 0.596322904	-0.2920926498	-0.8311102956	 0.12299
H	 0.5576401277	-0.3116886624	 0.9299173111	 0.086746
H	-1.9767716415	-0.2364974018	 0.8216346878	 0.089066
H	-1.8649717054	-0.2520122742	-0.9442648689	 0.136896
H	-2.2630619683	-3.1598644571	 1.5443370854	 0.116214
H	-0.5571097629	-3.5481246841	 1.2062088316	 0.136923
H	-0.9797006448	-2.0427322397	 2.0211704082	 0.135719
H	-1.797232973	-4.4782035272	-0.3850357387	 0.238122
H	-1.1684333465	-5.8326668789	-2.2732345964	 0.114247
H	-2.5088630386	-4.8020842935	-2.838485501	 0.118138
H	-0.8380840598	-4.334011325	-3.178402052	 0.160991
