20
gdb 117379	4.37965	0.74781	0.73269	1.6377	76.89	-0.2246	0.0139	0.2385	1651.0767	0.169477	-440.287966	-440.277992	-440.277048	-440.324653	35.094	
C	 1.0238687844	 0.7480353003	 0.0549905406	-0.318491
N	-0.293532694	 0.2479687042	-0.3349567957	-0.259815
C	-0.2538604604	-0.6661290141	-1.4558814217	-0.288608
C	 0.3301029971	-2.0421936372	-1.1324744712	 0.429575
O	 0.4813407521	-2.4758658742	-0.0183566962	-0.360565
O	 0.6073933935	-2.7268099477	-2.2632825962	-0.244041
C	 1.1092260966	-4.0434503278	-2.0980763498	 0.152484
C	 1.4744570424	-4.7467317785	-3.3623608431	-0.297948
C	 2.5564297781	-4.2798677177	-2.4063646754	-0.279489
H	 1.7538655328	-0.039558865	 0.2993691164	 0.112698
H	 1.4344506546	 1.3561220019	-0.7592646778	 0.117785
H	 0.916240369	 1.3962751952	 0.9291945846	 0.120794
H	-0.70451038	-0.2388129001	 0.455721041	 0.228318
H	-1.2696680112	-0.8362280261	-1.8378754335	 0.133101
H	 0.3114678167	-0.2250560109	-2.2836172852	 0.130074
H	 0.6426877584	-4.576225885	-1.2793865855	 0.123398
H	 1.259016954	-5.8061875061	-3.4405785597	 0.122484
H	 1.355614467	-4.1887283903	-4.2840480345	 0.128745
H	 3.1413527913	-3.4183621593	-2.7073100123	 0.125135
H	 3.0926075875	-5.0121704515	-1.8136173648	 0.124366
