27
gdb 100995	2.58264	1.01876	0.93994	0.0405	95.42	-0.2741	0.0778	0.3518	1490.0939	0.251136	-353.560521	-353.549682	-353.548738	-353.595971	41.499	
C	 0.1242880407	 1.6161564086	 0.026797189	-0.388897
C	 0.0175189038	 0.0870187712	 0.0062237495	-0.181228
C	-1.4179942961	-0.4473092485	-0.1717625947	-0.015246
C	-1.9849884018	-0.1291962398	-1.5645662515	-0.411114
C	-1.5311817406	-1.9471120297	 0.175745262	 0.378263
C	-0.708767788	-2.853477309	-0.7473087365	-0.456217
C	-1.2901302892	-2.3042173657	 1.6815804761	-0.258649
C	-2.5739217132	-3.1744503022	 1.6665255953	-0.222676
C	-2.9927362619	-2.4857418734	 0.3413667925	-0.262464
H	 1.1564544502	 1.9342914467	 0.205317734	 0.10952
H	-0.1956228393	 2.0624337107	-0.9199297176	 0.116635
H	-0.4967663189	 2.0450201365	 0.821579278	 0.111367
H	 0.657405001	-0.3067894563	-0.7937389384	 0.094022
H	 0.4274513952	-0.3060715608	 0.9451084458	 0.095569
H	-2.047569371	 0.0770074942	 0.5635318919	 0.057452
H	-2.9867643392	-0.5522891489	-1.6916137602	 0.113929
H	-2.0643298278	 0.949700461	-1.7258512538	 0.11256
H	-1.3486354384	-0.5335903102	-2.3592173709	 0.113443
H	 0.3587175172	-2.6145623511	-0.702103198	 0.112937
H	-0.819842202	-3.9039577164	-0.4579967566	 0.109575
H	-1.0309471336	-2.7686791738	-1.7902547892	 0.112498
H	-0.3488020313	-2.8033023854	 1.9290672357	 0.089798
H	-1.3954917045	-1.4284249393	 2.3298089149	 0.091881
H	-2.3576731583	-4.2380101043	 1.5362817649	 0.101004
H	-3.2534434196	-3.0700832619	 2.5154997002	 0.094177
H	-3.7081033288	-1.6744631897	 0.5090644662	 0.092192
H	-3.3790904946	-3.1253201028	-0.4574219588	 0.089669
