20
gdb 119528	4.17367	0.99931	0.8962	1.4918	80.69	-0.2277	0.0083	0.236	1357.4596	0.171449	-403.119686	-403.11105	-403.110106	-403.1534	32.431	
C	-0.2228008641	 1.3574523852	-0.104086596	-0.219752
O	-0.1573913139	-0.0475403891	-0.1005581188	-0.238474
C	 0.7462578382	-0.5569349915	-1.0622550318	-0.138625
C	 0.7427434974	-2.0559505713	-0.9674212771	 0.322803
C	 1.0982228204	-2.710710886	 0.3718624825	-0.325964
C	 1.7380412837	-4.0233493773	-0.0281788318	-0.091843
C	 1.8576249921	-4.1342495961	-1.3545362485	-0.07929
C	 1.2493250982	-2.9601272188	-2.0497079206	-0.123861
N	-0.2053334816	-2.755982339	-1.8432207923	-0.361973
H	 0.7559867807	 1.8143299522	 0.1159030063	 0.099911
H	-0.5708390916	 1.7482103575	-1.0734377937	 0.105492
H	-0.9328796598	 1.6552183984	 0.6713993147	 0.125689
H	 0.4515032013	-0.2512619389	-2.0778231608	 0.095859
H	 1.7615349448	-0.1658545145	-0.870063141	 0.080082
H	 1.7939365234	-2.0804292151	 0.9413678243	 0.114548
H	 0.2172985907	-2.8416093698	 1.0117573125	 0.122881
H	 2.0299213952	-4.7758907077	 0.6957147571	 0.098883
H	 2.2948856154	-4.9707463261	-1.8869202696	 0.100528
H	 1.6309555569	-2.6109877627	-3.0042874092	 0.089405
H	-0.5982082173	-3.5707947793	-1.374739236	 0.2237
