17
gdb 14196	3.69736	2.2719	2.08678	1.606	66.81	-0.2307	0.0744	0.3051	743.0624	0.144176	-363.811681	-363.805534	-363.80459	-363.841511	25.563	
C	 0.0207760609	 1.4993478563	-0.0232089912	-0.502153
C	 0.0175346216	-0.0054178703	 0.0063780004	 0.292774
C	-1.3100346886	-0.7964319545	-0.1361099028	-0.250712
C	-0.7099024576	-2.0865886944	 0.4418181605	 0.04724
O	-0.3993127977	-1.6663253017	 1.8046172241	-0.293729
C	 0.6376746435	-0.8966066404	 1.1991626913	 0.074601
C	 0.8248086824	-1.8589000743	 0.0233837505	-0.05057
N	 0.9550222064	-0.7367913113	-0.9050430198	-0.341836
H	 1.03637646	 1.8879252369	 0.0950221966	 0.126753
H	-0.3761931934	 1.8797993789	-0.9717816107	 0.117082
H	-0.6025891879	 1.8999588515	 0.7829128818	 0.12361
H	-2.1298761163	-0.4385722456	 0.490745227	 0.109753
H	-1.636136587	-0.8569413203	-1.1792691992	 0.08906
H	-1.2416376778	-3.0346427006	 0.3828520385	 0.079213
H	 1.3962362664	-0.4894923106	 1.8645186927	 0.089433
H	 1.5096265052	-2.7039025549	-0.0244468548	 0.083735
H	 0.5835035398	-0.8977883245	-1.8416630648	 0.205747
