19
gdb 72582	2.15338	1.64284	1.48948	4.281	74.89	-0.2616	0.0154	0.277	1039.947	0.158015	-423.058486	-423.049692	-423.048748	-423.091558	33.208	
C	 0.1173073803	 1.5862441175	-0.1345286145	-0.479315
C	 0.0698753947	 0.0968368431	 0.0544426661	 0.415955
C	 0.5908680184	-0.886204305	-1.0179414997	-0.271115
C	 1.2512113866	-1.7487659919	 0.0992194403	-0.282263
C	 0.7588429192	-0.7350957684	 1.1876922013	 0.063972
C	 1.7175348149	-0.2428619522	 2.2451907843	-0.496242
C	-0.6780979049	-1.051228726	 1.5896315756	 0.434889
O	-1.239322873	-1.657999087	 2.4465388803	-0.341304
O	-1.2455032052	-0.3536248245	 0.5498829122	-0.301636
H	 1.1278385398	 1.9062395981	-0.4065714467	 0.124737
H	-0.5627568488	 1.8915576555	-0.9370841433	 0.13859
H	-0.1805169492	 2.107713374	 0.7798053189	 0.132883
H	-0.1979793218	-1.3604630832	-1.6043417688	 0.121604
H	 1.3159913573	-0.4342329088	-1.6989936959	 0.109274
H	 0.8888581401	-2.7723323112	 0.2121188072	 0.123695
H	 2.3413747829	-1.7739415805	 0.0344016955	 0.11276
H	 2.6632163238	 0.0834770342	 1.8000347397	 0.119465
H	 1.299231341	 0.5933188634	 2.8142980626	 0.130125
H	 1.9391452538	-1.0470686971	 2.954741945	 0.143924
