16
gdb 47352	2.45896	1.51548	1.18949	2.6444	72.09	-0.2612	0.0079	0.2691	1071.226	0.12411	-437.846325	-437.838214	-437.83727	-437.879424	30.333	
N	-0.1508294968	 1.2895613227	-0.4000400188	-0.500804
C	-0.0538888759	 0.086032279	-0.032387564	 0.372724
C	-1.2876045879	-0.7897512768	 0.0592524397	-0.154399
O	-1.1795460463	-1.8407917204	 1.0014112881	-0.235748
C	 0.0006898968	-2.5789185009	 0.792810715	-0.102264
C	 1.2208558711	-1.6831188707	 1.0248521337	-0.083049
O	 1.157945362	-0.517699268	 0.169890677	-0.252109
C	 1.3594042861	-1.2821203402	 2.4235800406	 0.360836
C	 1.4827166733	-0.9637968315	 3.574918613	-0.468959
H	 0.775710725	 1.7158890196	-0.471147005	 0.225085
H	-2.1383311374	-0.1717654201	 0.3446203136	 0.151807
H	-1.4798595878	-1.201977043	-0.9464031158	 0.11816
H	 0.0014914024	-3.4088083992	 1.5028880549	 0.131939
H	 0.041782493	-2.9814419582	-0.2327769185	 0.101515
H	 2.1259380416	-2.2094028997	 0.7025130376	 0.12545
H	 1.5872244808	-0.6778772524	 4.5927304689	 0.209817
