20
gdb 105793	2.50229	1.47029	1.13935	1.9579	78.65	-0.2174	0.065	0.2824	1148.2267	0.170512	-403.04481	-403.036032	-403.035088	-403.078155	33.781	
C	 0.0145990426	 1.7274792462	 0.4782837186	-0.445267
C	 0.0788815364	 0.2004733787	 0.4575083417	-0.066154
C	 1.0721114815	-0.7222726204	-0.2107490566	-0.15461
C	 2.543319987	-0.4554777456	 0.1455907681	-0.034018
C	 2.8136376485	 0.6413344484	 1.101256403	-0.256937
N	 2.2960879705	-0.6394099436	 1.6213915276	-0.185887
C	 0.8249180749	-0.8244006298	 1.2834758658	 0.289408
C	 0.1667979084	-1.8832513237	 2.1343648074	-0.159397
O	-1.1822399923	-2.1479892921	 1.7886474461	-0.409191
H	 0.7700305859	 2.1852796144	-0.1647283692	 0.134043
H	-0.961133351	 2.055205675	 0.1061831885	 0.113681
H	 0.1288545722	 2.1403100995	 1.486238165	 0.126032
H	-0.9062565598	-0.2345336392	 0.2908857533	 0.100763
H	 0.7884622161	-1.4131213588	-0.9949703127	 0.095669
H	 3.3491062405	-0.9987001533	-0.3382979588	 0.099648
H	 3.8560439661	 0.7830384674	 1.3773120396	 0.120638
H	 2.2203556426	 1.5408357193	 1.1501114883	 0.124111
H	 0.7055631896	-2.8294556688	 2.0165943131	 0.123179
H	 0.2713648821	-1.5907209097	 3.1918230068	 0.09814
H	-1.715329612	-1.4100624839	 2.1000925344	 0.286151
