18
gdb 83052	2.56123	1.47896	1.22164	4.6516	82.19	-0.2486	-0.0052	0.2434	1089.6866	0.148631	-364.832669	-364.824581	-364.823637	-364.865059	31.206	
C	-0.0904479516	 1.527703478	 0.082726869	-0.423041
C	 0.0579564986	 0.0312636211	-0.0527209798	-0.041825
C	 0.7193554809	-0.6637560631	-1.2075574747	-0.106221
C	 1.6674461322	 0.1120839905	-2.1238344851	-0.287308
C	 2.7967165987	 0.5399187187	-1.2115909648	-0.074294
C	 2.6516404704	 0.0748983329	 0.0298753374	-0.147184
C	 1.3879167431	-0.7119156833	 0.1820742919	 0.156576
C	 1.3783482041	-1.885960485	 1.0059725507	 0.200008
N	 1.3680179267	-2.8261134881	 1.6813212573	-0.351893
H	 0.8116618984	 2.0626245228	-0.220028511	 0.130231
H	-0.9201422525	 1.8803374828	-0.5397418662	 0.125367
H	-0.3121796707	 1.8004244997	 1.1192849925	 0.129711
H	-0.7875445623	-0.5259457435	 0.3429057709	 0.110911
H	 0.241978636	-1.5558814886	-1.594299303	 0.111387
H	 2.0311895882	-0.5180717592	-2.9447497827	 0.122916
H	 1.1726662159	 0.9728165606	-2.5926745357	 0.120765
H	 3.6069443384	 1.1770030366	-1.5470706567	 0.107936
H	 3.3279317953	 0.2384438071	 0.8594967299	 0.115959
