16
gdb 55616	2.26545	1.07723	0.85409	3.2507	78.73	-0.2524	0.0154	0.2678	1390.37	0.119905	-400.704017	-400.693657	-400.692713	-400.741337	35.941	
C	 0.0016124542	 1.5143246274	-0.0273008426	-0.488301
C	 0.1564989048	 0.0050414063	 0.0383646237	 0.426311
O	 0.6031141879	-0.5677331257	 1.0144529733	-0.367302
N	-0.2650171078	-0.6675706312	-1.0785382179	-0.300153
C	-0.2232771799	-2.1252985664	-1.1466704262	-0.332988
C	-1.5698564986	-2.7016592044	-1.2626130608	 0.329173
C	-2.6751696197	-3.1604111916	-1.3584817597	-0.439758
C	 0.6495469515	-2.5911703622	-2.2325775242	 0.328383
C	 1.3637805144	-2.9607882048	-3.1239386954	-0.436987
H	-0.1177956979	 1.8943599203	-1.0451035365	 0.119046
H	-0.875691774	 1.8053868041	 0.5589393167	 0.156826
H	 0.8769899796	 1.9745323704	 0.4339661268	 0.157793
H	-0.6383030069	-0.1685424491	-1.8690818537	 0.256021
H	 0.2124693437	-2.4210532237	-0.1820418564	 0.18193
H	-3.6498430271	-3.5750940381	-1.4374355052	 0.205062
H	 1.998833296	-3.2961726013	-3.9064976517	 0.204943
