21
gdb 108632	2.30438	1.22816	0.85685	3.0551	86.63	-0.2337	-0.012	0.2217	1398.9166	0.180744	-387.142312	-387.132539	-387.131595	-387.177642	35.792	
C	-0.2883617617	 1.6024251088	-0.0883545105	-0.372952
C	 0.0453231821	 0.1023760813	 0.0123212557	-0.290562
C	 0.774447209	-0.430899545	-1.1882638756	 0.22389
C	 2.0409475754	-0.8765889362	-1.2560589135	 0.202474
C	 3.057532428	-0.959293	-0.1593185059	-0.495462
C	 2.4072826304	-1.3390098583	-2.6462458228	-0.409605
C	 1.1293643882	-1.120995414	-3.4617982506	 0.397297
O	 0.978858972	-1.3770791229	-4.6276878945	-0.305835
C	 0.0757623494	-0.5191320128	-2.5263460075	-0.418323
H	 0.6238862769	 2.2004064278	-0.178658115	 0.120143
H	-0.9160039473	 1.8178200965	-0.9587399932	 0.120933
H	-0.8290269311	 1.9392313321	 0.8013618547	 0.11582
H	 0.6274838535	-0.0755028837	 0.9215796127	 0.102721
H	-0.8927068939	-0.4574801641	 0.135226949	 0.10348
H	 3.4077206396	-1.991372785	-0.0276827018	 0.126863
H	 3.9456907949	-0.3622154224	-0.4042428085	 0.127233
H	 2.6751395664	-0.6090269092	 0.801632209	 0.126026
H	 3.237991941	-0.7730088917	-3.0907055932	 0.131034
H	 2.7092172103	-2.3947275377	-2.6907807481	 0.130581
H	-0.8203351114	-1.1551592362	-2.5091094104	 0.130408
H	-0.2555008717	 0.4509802226	-2.9203625698	 0.133837
