19
gdb 89648	4.3215	1.02975	0.96624	2.3236	75.54	-0.2429	0.0777	0.3207	1269.1254	0.158783	-422.972314	-422.964059	-422.963115	-423.005512	32.05	
O	-0.1126988711	 1.4846623878	-0.0981888788	-0.434805
C	 0.0410829756	 0.0964561983	-0.0190963131	 0.144327
C	 0.4126957479	-0.5390198713	 1.3798139072	-0.357286
C	-0.9163832317	-1.3075181639	 1.3235392158	 0.450377
O	-1.9423841095	-0.2923740573	 1.1947304758	-0.314784
C	-1.2545377979	-0.7306800949	 0.0075583305	-0.102911
C	-1.298263983	-2.5861024059	 1.958028204	-0.109562
C	-0.2633118698	-3.6467443655	 2.253955675	-0.277275
C	-0.8943882122	-2.8816956648	 3.3855228836	-0.265018
H	-0.8357333954	 1.7022057056	 0.5048881816	 0.288362
H	 0.7370602412	-0.2014022258	-0.8067287287	 0.093392
H	 1.30260021	-1.1705417116	 1.3259232882	 0.109855
H	 0.5089070422	 0.1676323725	 2.2077360424	 0.107058
H	-1.865890977	-1.1020981187	-0.8080701368	 0.099625
H	-2.2791729951	-2.9364724234	 1.6524064574	 0.093637
H	-0.5500490103	-4.6809682691	 2.1016090386	 0.118341
H	 0.7724748804	-3.4344069712	 2.0135059324	 0.117048
H	-0.2850622554	-2.1452644768	 3.8981302778	 0.120626
H	-1.6127309691	-3.3871450042	 4.0206202372	 0.118992
