20
gdb 38494	3.30433	1.65145	1.53531	1.2271	80.7	-0.2074	0.0658	0.2732	960.6666	0.173795	-365.945263	-365.938397	-365.937453	-365.975967	29.399	
C	 0.004321605	 1.438275637	 0.1196567904	-0.255061
C	 1.2832144121	 0.6990871649	-0.0276531789	-0.106963
N	-0.025577651	-0.0281742975	 0.0354811001	-0.099125
C	-0.3099457747	-0.5775113441	-1.3302941049	-0.26465
C	 0.9000452721	-0.3121682374	-2.2151552364	 0.250166
C	 1.2798027987	 1.0801230297	-2.6348759256	-0.385971
C	 1.8960060469	 0.5111537883	-1.385150269	 0.267158
C	 3.027734496	-0.4762566484	-1.7282872952	-0.286628
C	 2.0143089341	-1.3143160057	-2.5803045338	-0.276731
H	-0.282344279	 1.8440085062	 1.0876631225	 0.111795
H	-0.363721993	 2.0232190164	-0.7193403768	 0.106759
H	 1.934991326	 0.5766743106	 0.8332636437	 0.088601
H	-0.4639398831	-1.6558057195	-1.2224746114	 0.110106
H	-1.2448458417	-0.1509752554	-1.7105062691	 0.105956
H	 1.9070940021	 1.2150670053	-3.513959581	 0.107827
H	 0.531934529	 1.854200659	-2.5176832026	 0.118016
H	 3.8901112845	-0.0521526715	-2.25261368	 0.097492
H	 3.389200722	-1.0237921464	-0.8546792336	 0.107986
H	 1.8418845952	-2.3089967716	-2.1625600873	 0.106293
H	 2.232317179	-1.42105355	-3.6481673111	 0.096975
