22
gdb 85868	2.13415	1.5453	1.22693	1.7635	82.3	-0.2354	0.0712	0.3066	1166.9507	0.192555	-404.319173	-404.309414	-404.30847	-404.353045	37.671	
C	-0.8345924357	 1.057396592	-0.0753213644	-0.412867
C	 0.1381848753	-0.1127795779	-0.045806404	-0.057573
C	 1.5197837206	 0.0450662922	-0.7525739908	-0.302417
C	 2.2131997011	-0.6515936758	 0.4648219561	 0.349821
C	 2.5374485034	-2.1247988673	 0.2474846267	-0.448611
O	 3.3070249182	 0.0373052586	 1.0411278513	-0.477564
C	 0.9128070267	-0.4240067638	 1.2454201169	 0.321437
C	 0.7879493788	 0.2448572873	 2.5553695042	-0.298933
N	 0.5097010122	-1.2023682655	 2.4112152517	-0.379966
H	-0.3483873134	 1.9823577993	 0.2515539892	 0.119827
H	-1.2207766754	 1.2195601821	-1.087449084	 0.116654
H	-1.6968847045	 0.8814432638	 0.5788386976	 0.110008
H	-0.3660163847	-1.0195565547	-0.4035152208	 0.071902
H	 1.637656284	-0.421152596	-1.7341003902	 0.089518
H	 1.8253871654	 1.0932079423	-0.8054473028	 0.10437
H	 3.3881866382	-2.2365951347	-0.4372265735	 0.099577
H	 2.7800416149	-2.5991131726	 1.2019381522	 0.139355
H	 1.6895628911	-2.659333415	-0.1916058703	 0.117193
H	 4.1142476192	-0.2705536274	 0.6163198278	 0.274472
H	 1.6856599796	 0.4815755097	 3.1173374605	 0.132378
H	-0.0475732666	 0.9229885271	 2.7101676237	 0.106701
H	-0.4958766383	-1.3617929537	 2.391047403	 0.224719
