27
gdb 59755	2.01169	1.3413	1.09635	0.1559	94.35	-0.2882	0.0687	0.3569	1344.9017	0.253006	-353.581871	-353.571434	-353.57049	-353.616927	40.135	
C	 0.5162187583	-0.0669396442	-1.635345229	-0.394806
C	 0.0439887395	 0.0617766215	-0.178036921	 0.035733
C	 0.1733037711	 1.5227898025	 0.2846035316	-0.39307
C	-1.3810170265	-0.474858083	 0.1218375925	 0.015364
C	-2.4982771054	 0.0665086921	-0.8043796885	-0.223981
C	-2.6979262674	-0.9846522405	-1.9301239363	-0.202603
C	-2.0135824529	-2.2854401454	-1.4343020664	-0.207691
C	-1.5943161826	-2.0136439525	 0.0280295345	 0.035725
C	-0.4604820046	-2.904754337	 0.5350357523	-0.419007
H	 1.5306754473	 0.3329015132	-1.7401624637	 0.107519
H	 0.538007038	-1.1043622969	-1.9784077495	 0.114382
H	-0.1258529495	 0.4993018064	-2.3188506176	 0.11449
H	 0.7356898094	-0.5249741452	 0.4409296767	 0.071339
H	-0.4860946041	 2.186767647	-0.2859169203	 0.113429
H	-0.0838597479	 1.630930457	 1.3436445845	 0.107397
H	 1.1976784735	 1.8861156443	 0.149572887	 0.105896
H	-1.5879640032	-0.1680962976	 1.1549604898	 0.058662
H	-3.4225395949	 0.16387482	-0.2247163922	 0.093383
H	-2.2797257031	 1.0626759984	-1.1998597422	 0.092199
H	-3.7614720098	-1.1391268272	-2.1337590625	 0.092432
H	-2.2510865554	-0.6472608553	-2.8695771245	 0.097803
H	-2.673081157	-3.1561825446	-1.5038824624	 0.088904
H	-1.1348658514	-2.5178547921	-2.0450187568	 0.095337
H	-2.4745065037	-2.2191656391	 0.6538985444	 0.067142
H	 0.4442656077	-2.801427721	-0.0730863055	 0.115953
H	-0.1949426591	-2.6703677976	 1.5719036004	 0.109565
H	-0.7552765563	-3.9593394633	 0.5022195748	 0.108506
