20
gdb 116234	2.66623	1.19728	0.89346	1.2907	78.34	-0.2517	0.0242	0.276	1360.8025	0.170136	-440.301409	-440.291668	-440.290724	-440.336906	34.028	
C	-0.0243017192	 1.5133548819	-0.1983455042	-0.389684
C	-0.063581691	-0.0150067919	-0.1499037795	-0.182429
C	-1.4438634631	-0.5550010079	 0.2387123912	-0.002308
O	-2.4644667383	-0.2126347812	-0.7056880284	-0.256363
C	-2.6567546552	-1.3334058761	-1.5241998187	 0.014885
O	-2.3091745306	-2.4817458827	-0.7571408195	-0.247161
C	-1.4976315818	-2.0715959822	 0.2699889452	 0.413705
N	-0.8974834847	-2.8076104674	 1.0911979843	-0.322601
C	-1.0117988268	-4.2535784671	 0.9903118162	-0.335721
H	 0.9636950906	 1.8714089613	-0.5017214895	 0.11506
H	-0.7610387979	 1.8975898166	-0.9094209312	 0.130933
H	-0.2499328199	 1.9446314318	 0.7832909632	 0.117687
H	 0.2242992268	-0.4335539741	-1.122752161	 0.097206
H	 0.6524852482	-0.4053598877	 0.5814965521	 0.125855
H	-1.7456433119	-0.1424986797	 1.2066892737	 0.113219
H	-3.7107754239	-1.3983536359	-1.8095742309	 0.127717
H	-2.0204591276	-1.3038976625	-2.4234023657	 0.102854
H	-1.5521340693	-4.6335748519	 1.8652654664	 0.128405
H	-1.5227545484	-4.603498761	 0.0861795583	 0.123121
H	-0.0085100361	-4.6916998822	 1.0233497478	 0.125618
