21
gdb 105195	1.83489	1.47151	1.04763	2.1007	79.62	-0.2406	-0.0099	0.2308	1266.9079	0.179364	-424.236284	-424.225866	-424.224922	-424.271557	38.19	
C	-0.6629990422	 1.3811555879	 0.4292471686	-0.380547
C	 0.146131463	 0.1572680768	-0.020199768	-0.283153
C	 0.9585764008	-0.4872703806	 1.0919917082	 0.206373
C	 0.2100432196	-1.2485938826	 2.1851085392	-0.356188
C	 0.9924769477	-2.0215386697	 1.1810271557	 0.080386
O	 0.3484026889	-2.7318290946	 0.1684505685	-0.420392
C	 2.2610793798	 0.1227935993	 1.5357020566	 0.328403
C	 2.9209030377	 1.158113975	 0.6421807404	-0.499295
O	 2.8019221804	-0.2455139632	 2.5601366215	-0.322499
H	-0.0225278009	 2.1787755278	 0.8204988184	 0.115744
H	-1.2354841129	 1.7962736482	-0.4060866195	 0.114784
H	-1.3703559261	 1.1157430749	 1.2215287046	 0.118736
H	-0.5289775126	-0.6003393929	-0.4270697612	 0.117258
H	 0.8091156757	 0.4355917132	-0.8471672921	 0.098098
H	 0.6072178968	-1.1709759777	 3.1902834894	 0.13899
H	-0.8709031954	-1.2667139067	 2.0906317706	 0.111757
H	 1.9430091322	-2.4403080311	 1.5062600717	 0.11136
H	-0.1958608123	-3.4102633217	 0.5808967453	 0.293443
H	 3.1234213025	 0.7343627894	-0.3480025238	 0.144414
H	 2.2742240149	 2.0277286096	 0.4899221019	 0.142296
H	 3.8581962525	 1.4736743788	 1.1012331541	 0.140035
