17
gdb 52587	2.50542	1.00709	0.79363	1.5845	82.76	-0.2495	0.0337	0.2831	1479.4582	0.132209	-384.59825	-384.588184	-384.58724	-384.63536	34.692	
C	-0.0299210954	 1.4428887522	-0.1441865059	-0.498727
C	-0.002142924	-0.010152061	-0.0651295673	 0.075455
C	 0.008461294	-1.2110769399	 0.000645389	 0.095783
C	 0.0525960526	-2.6773411992	 0.0599472528	-0.402977
C	-1.2874285503	-3.2590701177	 0.1853489453	 0.350318
C	-2.3772952543	-3.7475167193	 0.3091785214	-0.450767
C	 0.838059583	-3.2364845846	-1.1374495037	 0.103806
C	 0.5826377358	-4.5580073746	-1.7166455517	-0.193413
O	 0.1591569737	-3.3565241039	-2.3740367773	-0.219267
H	 0.6511991121	 1.8955870226	 0.5846229813	 0.148116
H	 0.2668619191	 1.7910187985	-1.1394509483	 0.15249
H	-1.0355161594	 1.8283625689	 0.0560455333	 0.153333
H	 0.6284123558	-2.9657123844	 0.9540128672	 0.136449
H	-3.34833926	-4.1651472538	 0.4115260558	 0.200375
H	 1.8414851116	-2.8149511273	-1.2062469782	 0.10435
H	 1.3958196593	-5.0950744616	-2.2023703535	 0.115506
H	-0.2222493035	-5.1694212347	-1.31593707	 0.129171
