19
gdb 37228	3.96818	1.38647	1.22708	1.6886	79.	-0.2082	0.0724	0.2806	1065.1599	0.159886	-385.790411	-385.783094	-385.78215	-385.822194	29.607	
C	-0.0722149195	 1.4554377152	-0.1046521415	-0.308644
C	 1.319090594	 0.8746900591	-0.0644072916	-0.062383
C	 0.1124971337	-0.029711001	 0.0819826954	-0.062383
C	 0.4953108179	-0.7892088835	-1.2133247037	-0.153557
C	 1.7390902051	 0.1430679306	-1.36422641	-0.153554
C	 0.7003306233	 0.0490012632	-2.4259982066	 0.446066
C	 0.9814697513	-0.5494025586	-3.806060472	-0.357909
C	 0.0693484348	 0.5851790507	-4.3160849052	-0.076342
O	-0.1383454519	 1.0789596597	-2.9755398059	-0.307606
H	-0.3513242853	 1.9755172164	 0.8079044458	 0.102656
H	-0.492034398	 1.8687656439	-1.0113894746	 0.153623
H	 2.0428296078	 1.1519570187	 0.6904938523	 0.086602
H	-0.2293555017	-0.5511590002	 0.9661656693	 0.086602
H	 0.4461214784	-1.8707416617	-1.2839229153	 0.081966
H	 2.7698386927	-0.1289990915	-1.5658531384	 0.081966
H	 2.0221497944	-0.4975192423	-4.1321890277	 0.114824
H	 0.6022062629	-1.5615920545	-3.9600133746	 0.114825
H	 0.5523219437	 1.3342309128	-4.953614858	 0.106623
H	-0.8706740234	 0.267768323	-4.7812618677	 0.106625
