21
gdb 65661	3.23281	1.17804	1.03978	2.6549	83.36	-0.2459	-0.0212	0.2246	1224.9049	0.182091	-387.042334	-387.033631	-387.032687	-387.076397	33.34	
C	 0.0783178881	 1.6533331981	-0.2195377342	-0.485127
C	 0.0411369219	 0.1258118486	-0.086123523	 0.374366
C	-1.4039410806	-0.3224197456	-0.4489516909	-0.361007
C	-2.3346232992	-0.1135111687	 0.7228405345	 0.163346
O	-3.0963331289	 0.8127802497	 0.8461375708	-0.244194
C	 1.226719026	-0.734824585	-0.6652165399	-0.092327
C	 2.1254769973	-0.1834213467	 0.480438896	-0.234466
C	 0.764896963	-0.5449967557	 1.1490688795	-0.085032
C	 0.8408042962	-1.8685509265	 0.3326855385	-0.2314
H	 0.0143197361	 1.9415846689	-1.275190951	 0.118828
H	-0.7874311337	 2.0949107308	 0.2838904737	 0.141586
H	 0.9723400224	 2.1161456627	 0.1980147939	 0.117852
H	-1.7639460611	 0.277891193	-1.2892915326	 0.116069
H	-1.4457045952	-1.3754170373	-0.738100793	 0.110397
H	-2.2496769579	-0.8867222052	 1.5216733465	 0.075544
H	 1.4942143526	-0.8454957704	-1.7183797668	 0.069506
H	 2.9683040268	-0.8183799042	 0.7637456913	 0.092549
H	 2.4296748835	 0.8606390633	 0.442744123	 0.097062
H	 0.5064512554	-0.435503552	 2.2042125931	 0.073699
H	-0.0791754028	-2.4271162655	 0.1638609503	 0.089311
H	 1.65117556	-2.5473200023	 0.6083603204	 0.093439
