19
gdb 50851	2.68301	0.96432	0.73285	2.242	80.35	-0.251	-0.0146	0.2364	1531.5831	0.159668	-419.234717	-419.225426	-419.224481	-419.269943	33.503	
N	 0.0834010415	-0.1239662867	-1.3967645837	-0.464322
C	-0.4905593447	 0.2978310209	-0.3442961341	 0.097332
N	-1.8548867414	 0.1269562594	-0.1793565708	-0.302704
C	-2.5541617329	 0.5559176344	 0.9343864557	 0.403575
O	-2.016422992	 1.1266987047	 1.8602112347	-0.356545
C	-4.0466304566	 0.2286976284	 0.9290515659	-0.323605
C	-4.71465534	 0.1340348553	-0.4265952804	-0.005889
C	-4.7385240014	-1.1738432656	-1.1950742574	-0.266099
C	-6.0022442776	-0.6314062603	-0.5781848684	-0.2804
H	 1.0804124492	 0.0803866397	-1.3585736844	 0.231421
H	-0.0349287103	 0.8093038809	 0.5056214198	 0.13893
H	-2.349965764	-0.3358330368	-0.9289140206	 0.271534
H	-4.1644779636	-0.7225735937	 1.4659553009	 0.129219
H	-4.5209572188	 0.9908533142	 1.5543758816	 0.13852
H	-4.6303195612	 1.033008592	-1.0316783434	 0.100838
H	-4.6380457428	-1.1436347724	-2.2744668161	 0.125436
H	-4.2874441313	-2.0457993641	-0.7314906541	 0.121977
H	-6.3945108136	-1.1384140692	 0.2971063573	 0.119466
H	-6.7635118383	-0.2285940608	-1.2363062624	 0.121317
