21
gdb 89487	2.70129	1.63028	1.42022	2.121	77.44	-0.2407	0.0877	0.3284	1042.9283	0.183611	-424.252218	-424.244137	-424.243193	-424.284279	32.687	
C	-0.152509568	 1.5244069064	-0.100363732	-0.416244
C	 0.0483433698	 0.0224716687	 0.0260312302	 0.160587
O	 0.7081535262	-0.4927392036	-1.1567991446	-0.314865
C	 1.8107647662	-1.2706304036	-0.694156386	 0.498697
C	 2.3541373741	-2.1143719477	-1.8167235871	-0.466568
C	 1.2667939807	-1.9022149107	 0.5964723318	-0.283046
C	 0.9485464297	-0.5062305908	 1.1680219435	-0.108571
C	 2.34232392	 0.1291774435	 1.0392546072	-0.079274
O	 2.8297511872	-0.3912397348	-0.2124548694	-0.298205
H	 0.7937423442	 2.0455576228	-0.2628684824	 0.132525
H	-0.7994572048	 1.7386999495	-0.9557876303	 0.127823
H	-0.6325203266	 1.928188414	 0.7977407526	 0.109552
H	-0.9393517797	-0.4573353044	 0.1050451879	 0.070238
H	 2.6871440738	-1.4688684787	-2.6331436726	 0.137883
H	 3.2043244838	-2.7041096197	-1.4668751325	 0.124862
H	 1.5780390397	-2.7841953842	-2.1935128628	 0.124746
H	 0.3864334915	-2.526369108	 0.4296125471	 0.104029
H	 2.0254140151	-2.4526298407	 1.1571567967	 0.102912
H	 0.5036685567	-0.4489186795	 2.1617198519	 0.073743
H	 2.3330733479	 1.2228982958	 1.0067260214	 0.103951
H	 3.0073932523	-0.1834028742	 1.8556115997	 0.095224
