23
gdb 122369	5.19737	0.67225	0.66486	0.9561	87.88	-0.2504	0.0922	0.3426	1805.1457	0.206188	-388.225621	-388.216395	-388.215451	-388.260807	34.243	
C	 0.1671969484	 1.4074934668	-0.0872064574	-0.227529
O	 0.2607089805	 0.0066456975	-0.1573044578	-0.229251
C	 0.7364129845	-0.5733529418	 1.0381413537	-0.042178
C	 0.7946374316	-2.0862742262	 0.8568014258	-0.268798
C	 1.3564377434	-2.7886163382	 2.0858355585	 0.066802
C	 0.5126558319	-3.0118135541	 3.3891967456	-0.046424
C	-0.2540330798	-4.146707842	 2.6483231279	-0.22121
C	 1.2459261381	-4.3369333224	 2.2745945014	-0.062744
C	 1.5626965854	-4.0919129516	 3.7785614181	-0.217705
H	 1.1462749475	 1.875262013	 0.1061407086	 0.100848
H	-0.2072268226	 1.761185436	-1.0511967887	 0.124848
H	-0.5271211025	 1.7339438091	 0.7041024759	 0.100888
H	 1.7369769512	-0.1755672745	 1.2850648447	 0.080704
H	 0.0730882505	-0.311965815	 1.8812690058	 0.084558
H	-0.2072188978	-2.4395382436	 0.597341748	 0.107282
H	 1.4344077727	-2.3031644121	-0.0078371527	 0.104919
H	 2.3643586342	-2.406428899	 2.2943134008	 0.058033
H	 0.0879358519	-2.2471101933	 4.0423373032	 0.065417
H	-0.6923929579	-4.9222413085	 3.2825935048	 0.087928
H	-0.9456584991	-3.8625977653	 1.8544372772	 0.093944
H	 1.6728692014	-5.1070614093	 1.6293130132	 0.066135
H	 2.5693624458	-3.7376068947	 4.018762034	 0.086169
H	 1.2303510408	-4.8634913807	 4.4780936994	 0.087364
