18
gdb 105712	2.31724	1.48573	1.18458	5.3051	76.93	-0.2434	0.003	0.2464	1120.2951	0.148765	-398.157293	-398.1485	-398.147556	-398.190891	32.356	
C	 0.014958514	 1.5600909163	-0.0270848609	-0.396527
C	-0.0496368191	 0.0361039575	 0.0697518566	-0.205263
C	-1.4846100968	-0.5415283647	-0.0164165401	 0.138684
C	-1.4917607028	-2.1000392209	 0.1932645721	-0.237944
N	-1.9647417172	-2.1920843008	 1.5773885969	-0.297831
C	-2.5218528564	-0.9702831472	 1.8880143763	 0.065081
N	-2.3153028445	 0.0053947566	 1.0887490116	-0.265539
C	-2.0905091768	-0.1929944877	-1.3115744917	 0.289856
N	-2.547589638	 0.0499997272	-2.3447085344	-0.354492
H	 1.0486360189	 1.9036557017	 0.0726243756	 0.112946
H	-0.3648792745	 1.9101201337	-0.9918520207	 0.138987
H	-0.5839461557	 2.0222622614	 0.7605526924	 0.144421
H	 0.5506595265	-0.4242087163	-0.7242341756	 0.108582
H	 0.3650159202	-0.3040527359	 1.0258852914	 0.111865
H	-2.1724443062	-2.6007437936	-0.5038595279	 0.130736
H	-0.4923886207	-2.5274651588	 0.0774342201	 0.126754
H	-2.4235892586	-3.0360908928	 1.8858233734	 0.25318
H	-3.0742442523	-0.8627842856	 2.8173303949	 0.136505
