20
gdb 107702	3.33782	1.27643	1.10278	1.9956	79.24	-0.2196	0.0746	0.2941	1172.9336	0.17066	-403.059481	-403.051004	-403.050059	-403.092306	33.217	
C	-0.0888235064	 1.5265222736	 0.0034281616	-0.381096
C	 0.0948498572	 0.0051586629	-0.0544338808	-0.312785
C	 0.8392504786	-0.4599501735	-1.2756175394	 0.383783
C	 2.2774988808	-0.1199344217	-1.7462825303	-0.389066
C	 1.7342579183	-1.0669899508	-2.8350371659	 0.376079
O	 2.3081559319	-1.4736291545	-4.0228615324	-0.469578
C	 0.9198716362	-1.931902417	-1.7985341043	-0.151463
N	-0.3937014043	-1.813252847	-2.5132705004	-0.355078
C	 0.288151537	-0.4976447611	-2.7452835069	-0.100669
H	 0.8755624341	 2.0453063715	 0.0147365102	 0.116415
H	-0.6517126727	 1.8886273998	-0.8632617386	 0.118994
H	-0.636459513	 1.8209045858	 0.9037892685	 0.113186
H	 0.6294041932	-0.3350338167	 0.8423445388	 0.095178
H	-0.8820567854	-0.4921135195	-0.0451724299	 0.121315
H	 2.4665755308	 0.9151024117	-2.0470475777	 0.099099
H	 3.0940186605	-0.4963997291	-1.1200310849	 0.086831
H	 3.128416014	-1.9389975763	-3.8254499302	 0.285726
H	 1.2288942839	-2.8207079702	-1.2440070116	 0.07185
H	-0.3717893368	-2.3681120875	-3.3731066024	 0.212507
H	-0.1510851079	 0.3195746495	-3.3198211631	 0.078772
