18
gdb 36713	3.64299	1.02963	0.83226	3.2107	77.03	-0.2466	0.0112	0.2577	1342.5174	0.147917	-401.958556	-401.949972	-401.949028	-401.993207	31.068	
N	-0.1518075639	-0.1350729517	 1.359468682	-0.309618
C	-0.1079071937	 0.5841995125	 0.4563139416	 0.262229
C	-0.0617717114	 1.5010857059	-0.7034175943	-0.204053
O	 1.1831089462	 2.1060043442	-0.9126327221	-0.234611
C	 1.5173773227	 3.1615330092	-0.0116109984	 0.127426
C	 2.126124733	 2.7043275093	 1.3431070156	-0.272641
C	 3.207674179	 3.7293261299	 1.58384114	-0.067545
C	 3.4590227939	 4.4600430924	 0.498750602	-0.065769
C	 2.5914778598	 4.0572372437	-0.6675718261	-0.281406
H	-0.2889941717	 0.9191213228	-1.6025138209	 0.159628
H	-0.8626678768	 2.2464595931	-0.5762601797	 0.139158
H	 0.6124420807	 3.7567231409	 0.1805241308	 0.077958
H	 1.3852196624	 2.6549749017	 2.1471348371	 0.115668
H	 2.5473658713	 1.6952963953	 1.2428542172	 0.128568
H	 3.7270084641	 3.8137331188	 2.5317762277	 0.098146
H	 4.2149007457	 5.2333061014	 0.4231457922	 0.096307
H	 3.1539841398	 3.4701865777	-1.4062431973	 0.124311
H	 2.1532531489	 4.9041649128	-1.2059238274	 0.106243
