18
gdb 78822	3.53645	1.29257	1.12159	4.4179	79.53	-0.2698	0.0376	0.3074	1116.834	0.148762	-364.77873	-364.77111	-364.770166	-364.810757	29.852	
C	 0.0683739101	 1.5989508261	 0.0886962114	-0.42746
C	 0.1134063937	 0.0792970841	-0.0060830105	 0.017085
C	 0.8029500429	-0.633323999	-1.1718823976	-0.097502
C	 2.2785000989	-0.8445585767	-0.7972984187	-0.057473
C	 1.2140853601	-1.787777013	-0.2940903843	-0.074656
C	 1.0473199484	-0.7737258585	 0.9080946497	-0.076676
C	 2.490876845	-0.2462710851	 0.6003814143	-0.178215
C	 3.5162700244	-0.9476467752	 1.3614367549	 0.270375
N	 4.3312960445	-1.4942561888	 1.9730388876	-0.330728
H	 1.0473466466	 2.0581051926	-0.0753752332	 0.121181
H	-0.6107685039	 2.0070309883	-0.6676251318	 0.121605
H	-0.2983006923	 1.9215887692	 1.0695083012	 0.121199
H	-0.8996375375	-0.3269471402	 0.094180913	 0.082585
H	 0.4998134266	-0.6668285855	-2.2110098159	 0.093627
H	 3.0373312476	-1.0292507346	-1.5453620604	 0.106403
H	 1.0925891976	-2.856109858	-0.3850351777	 0.105513
H	 0.7730377405	-1.0148981003	 1.9320561233	 0.092294
H	 2.6598741368	 0.8315973144	 0.6911171245	 0.110843
