20
gdb 16330	2.86494	1.81281	1.38697	1.3945	74.64	-0.2477	0.0732	0.321	982.6826	0.177044	-348.975785	-348.967417	-348.966473	-349.008375	31.931	
C	-0.204467542	 1.5242357957	 0.0067694713	-0.414477
C	 0.0479529063	 0.0228914752	-0.0482160831	-0.015364
C	 1.2322128383	-0.5424889732	-0.9084826164	-0.250735
C	 1.7735059958	-1.2581242083	 0.3356652859	-0.111752
C	 2.0730401828	-0.2512130435	 1.4099787127	-0.338831
C	 0.6403659948	-0.6805740928	 1.1890262575	 0.342806
C	-0.1787097897	-1.3052259329	 2.2768451664	-0.17741
O	-0.8285864081	-0.3326957316	 3.0917941098	-0.415098
H	 0.7040207248	 2.0798065185	 0.2630391327	 0.1089
H	-0.5588320183	 1.9012647947	-0.9590216413	 0.111129
H	-0.9634595849	 1.7546689496	 0.7615484748	 0.126014
H	-0.8793010281	-0.4863093784	-0.3329472662	 0.073384
H	 0.8964618088	-1.2181479718	-1.6980662409	 0.101459
H	 1.9064795008	 0.199911501	-1.3501733295	 0.093219
H	 2.1946331383	-2.2564740461	 0.3584540048	 0.085941
H	 2.5376844726	-0.6535883578	 2.3060131202	 0.107096
H	 2.4150544329	 0.7469749029	 1.146826646	 0.106423
H	-0.988734156	-1.9095228994	 1.8520488508	 0.105338
H	 0.4499644602	-1.9801062407	 2.881271588	 0.081463
H	-0.1454218694	 0.2640470988	 3.4158202165	 0.280493
