17
gdb 23121	2.58743	1.22375	0.84079	0.8884	77.51	-0.1824	-0.0046	0.1777	1309.4287	0.135732	-455.107008	-455.097941	-455.096997	-455.141102	33.065	
O	-0.0102117892	 1.4087022195	 0.0919074049	-0.425044
C	 0.0140616024	-0.007579728	-0.0189384182	-0.196131
C	-1.3890721538	-0.5117599221	-0.0017402317	 0.184642
C	-2.5310657321	 0.2123782444	-0.0197404741	-0.092317
N	-3.6777444451	-0.5639949849	-0.12022928	-0.319001
C	-3.2839289448	-1.9714584863	 0.0283457623	-0.260287
C	-1.7660869162	-1.9114294037	 0.0011515593	 0.328401
N	-0.9433004203	-2.8950599356	-0.0344897023	-0.274214
O	-1.6582942215	-4.1171021801	 0.0037827808	-0.404103
H	 0.8935023799	 1.7264816149	 0.0167439824	 0.289868
H	 0.515209625	-0.3291837672	-0.9475183209	 0.103311
H	 0.5775178696	-0.4694428174	 0.8085407199	 0.104358
H	-2.611058769	 1.2901807377	-0.0084794208	 0.140668
H	-4.492643521	-0.2568287237	 0.3901096114	 0.242342
H	-3.6385220409	-2.4060546933	 0.9716709236	 0.132973
H	-3.6717457401	-2.5953732703	-0.7837162183	 0.141457
H	-0.9500202028	-4.7666608939	-0.0489181083	 0.303077
