17
gdb 34389	2.60175	1.62754	1.29626	3.6392	77.72	-0.2416	-0.0093	0.2323	1019.0817	0.13833	-380.86966	-380.862114	-380.86117	-380.902061	28.958	
N	-0.0174095395	-1.0872427184	-0.3980341786	-0.344036
C	-0.0169722456	 0.0487573022	-0.1790804028	 0.213117
C	-0.0243633311	 1.4873815206	 0.0650958785	 0.194781
N	-0.3876151288	 2.3151209267	-1.131583078	-0.363094
C	 0.9617177323	 2.9473028807	-1.1487630252	-0.169337
C	 1.3680086204	 2.2124746825	 0.1552447416	-0.090551
C	 1.3643879531	 2.9942395405	 1.4851318176	-0.287211
C	-0.0014110889	 2.7161842815	 2.0691484036	-0.062336
C	-0.7448601958	 1.8974581292	 1.3281201703	-0.106226
H	-0.5967360954	 1.7628396428	-1.9561581421	 0.232426
H	 1.5789406154	 2.678061461	-2.0123817918	 0.111353
H	 0.9161047768	 4.039904449	-1.0810669258	 0.110188
H	 2.2379794875	 1.5666523519	 0.0470190528	 0.101322
H	 2.1630046645	 2.6634625118	 2.1601510478	 0.118539
H	 1.5245373504	 4.0685388638	 1.3254441161	 0.117329
H	-0.3264290754	 3.1631601539	 3.0025774217	 0.108469
H	-1.7546822699	 1.5720513704	 1.5445636444	 0.115265
