18
gdb 34371	2.59073	1.62741	1.28182	4.1882	80.7	-0.2572	0.0058	0.263	1034.0125	0.149852	-364.833902	-364.826366	-364.825422	-364.865943	29.52	
N	 0.0116621668	-1.043731861	-0.5748824308	-0.353386
C	 0.0000974586	 0.0720183073	-0.2690024987	 0.218202
C	-0.0118381836	 1.472732354	 0.1089793058	 0.173382
C	-0.413032522	 2.4373713508	-1.0644457303	-0.264229
C	 1.0579852969	 2.9133639712	-1.1952097952	-0.221142
C	 1.3995648429	 2.1897668565	 0.1400604909	-0.091538
C	 1.3036420369	 3.0284764066	 1.3829749975	-0.078935
C	 0.1913330951	 2.8076482264	 2.0829312791	-0.066401
C	-0.6926157418	 1.743608119	 1.4765019449	-0.330415
H	-0.8471315615	 1.954077315	-1.9404729387	 0.125486
H	-1.0952788193	 3.2160922188	-0.7169360317	 0.114812
H	 1.5699305274	 2.4672039811	-2.0510086096	 0.116714
H	 1.2209812171	 3.9931027488	-1.2124674041	 0.105983
H	 2.2893197063	 1.5544869099	 0.1186928932	 0.096884
H	 2.0782774715	 3.7386178897	 1.6523861799	 0.10299
H	-0.0715562334	 3.3088092776	 3.0080033794	 0.103477
H	-1.7302529409	 2.0727031096	 1.3428535999	 0.118248
H	-0.728841867	 0.8440230487	 2.1031370685	 0.129866
