22
gdb 61259	3.75406	0.82101	0.71664	4.2141	86.93	-0.3005	0.0374	0.3379	1602.9398	0.194172	-367.229041	-367.219339	-367.218395	-367.264105	35.767	
C	-0.1415134187	 1.5277195842	 0.061484549	-0.407159
C	 0.0109751584	 0.00578363	-0.0416897757	-0.00193
C	 0.7915192899	-0.4020911484	-1.3162724475	-0.34796
C	 0.1246712459	-0.0009175997	-2.5528055263	 0.263549
N	-0.4204229959	 0.3219152075	-3.5196588422	-0.315478
C	 0.6984240537	-0.5807354192	 1.189376517	 0.066306
C	-0.0218892217	-0.4904214985	 2.5657211745	-0.241896
C	 0.5012596605	-1.9150897749	 2.8905463582	-0.218141
C	 0.758844353	-2.1260633672	 1.3743537021	-0.241392
H	 0.8378807476	 2.0152285705	 0.1366015746	 0.11471
H	-0.655098816	 1.9368687066	-0.813222139	 0.140824
H	-0.7182445501	 1.8002731686	 0.9499378203	 0.12452
H	-0.9900489036	-0.4406076639	-0.1152677299	 0.088162
H	 1.7923645864	 0.0473860963	-1.3000051541	 0.145962
H	 0.9331991904	-1.4882436452	-1.3397244685	 0.152201
H	 1.7086544	-0.158486653	 1.274806002	 0.068458
H	 0.2580970962	 0.3247998899	 3.2367026458	 0.100416
H	-1.1101283405	-0.4800382359	 2.4418642172	 0.102261
H	 1.4351819667	-1.8839721268	 3.4585695094	 0.105474
H	-0.1832626652	-2.6051927227	 3.3882700142	 0.101311
H	-0.0907199285	-2.6180342248	 0.8873987568	 0.101845
H	 1.6747086814	-2.6442423236	 1.0792171421	 0.097959
