20
gdb 114289	2.30621	1.40025	1.05983	1.5797	84.52	-0.2296	0.0304	0.26	1220.8487	0.170113	-365.932039	-365.923058	-365.922113	-365.965703	34.303	
C	-0.0790672695	 1.6528632631	 0.0556327749	-0.38084
C	 0.009691556	 0.1340122716	 0.2384138015	-0.212011
C	-1.3377452722	-0.5545032355	 0.0429659497	 0.026639
C	-2.0184268952	-0.6623264362	-1.3535153271	-0.196004
N	-2.284786067	-2.1393924307	-1.1691410475	-0.150083
C	-0.9525059852	-2.8020170281	-1.0960245374	-0.198723
C	 0.1632196156	-2.4281084633	-1.9191803188	 0.352295
C	 1.0869926027	-2.182536128	-2.650543888	-0.450163
C	-1.4607066245	-2.0769007994	 0.1017978778	-0.07806
H	 0.8946868124	 2.1280703347	 0.2075269774	 0.113794
H	-0.4199595957	 1.9118672598	-0.9529241023	 0.118845
H	-0.7829816865	 2.1000100652	 0.7668962511	 0.112329
H	 0.7428428675	-0.2820786293	-0.4583666486	 0.11791
H	 0.3758653071	-0.0939986882	 1.2483064578	 0.094651
H	-2.0597955106	-0.1278491617	 0.7484523194	 0.083163
H	-2.9650570388	-0.1278942016	-1.4424727588	 0.111812
H	-1.3931519155	-0.4421003502	-2.2232965248	 0.117955
H	-1.0870428153	-3.8801886988	-1.0311781772	 0.121026
H	 1.908454071	-1.9552426963	-3.2841931716	 0.200727
H	-1.7410988862	-2.643415697	 0.9862100425	 0.094738
