19
gdb 35060	2.37218	1.51578	1.46352	3.0566	78.85	-0.2412	0.0124	0.2536	1033.9816	0.162216	-382.070244	-382.06245	-382.061505	-382.102507	30.383	
N	-0.4876540907	-1.076390872	-0.2035962742	-0.355158
C	-0.2964877906	 0.0615438225	-0.1100546745	 0.306008
C	-0.074368109	 1.4824185233	-0.020864385	-0.170736
C	 0.4949113592	 2.0769089568	 1.2469982881	-0.017262
C	 0.8848357107	 1.1994189875	 2.4344661289	-0.24401
C	 2.3752151863	 0.8236572277	 2.3952594795	-0.190639
C	 2.7193190585	 0.213632816	 1.0334183698	-0.222345
C	 2.4787159316	 1.2363146657	-0.0914133218	-0.149975
N	 1.2682141653	 2.0670888998	 0.01055568	-0.101235
H	-0.7938783634	 2.056445179	-0.6007191122	 0.132474
H	 0.1146000257	 3.0645640644	 1.5012228698	 0.106156
H	 0.6452619822	 1.7351498357	 3.3571953524	 0.106202
H	 0.2864701557	 0.2812067324	 2.4392105964	 0.130415
H	 2.9903029664	 1.7168697007	 2.5692775451	 0.099368
H	 2.5990278068	 0.1207749874	 3.2034049848	 0.103017
H	 3.7701662303	-0.0928106615	 0.9959575996	 0.100198
H	 2.1192232046	-0.6880863071	 0.8745901587	 0.13189
H	 3.3108138304	 1.9507546935	-0.0989366712	 0.114877
H	 2.4686134601	 0.7498569781	-1.0716906244	 0.120757
