16
gdb 2847	5.93175	1.43292	1.26083	3.204	62.62	-0.2479	-0.026	0.2219	955.8041	0.13579	-325.763216	-325.755517	-325.754573	-325.795514	27.06	
C	-0.0666328078	 1.5360438198	 0.0234009483	-0.379285
C	 0.009876155	 0.0264836593	 0.2783513497	-0.186401
C	-1.3492724368	-0.6282714684	 0.1555263938	 0.012757
N	-1.8036621072	-1.0073532493	-1.1755492534	-0.331365
C	-1.5783172916	-2.0781572128	-0.1789916339	-0.135828
C	-0.4595105812	-3.0147749742	-0.4755346063	 0.174261
O	-0.370475315	-4.1189065738	 0.0011810426	-0.259411
H	 0.9182970119	 2.0020656634	 0.1186625612	 0.118222
H	-0.4421277956	 1.7382404136	-0.9844918756	 0.130449
H	-0.737634566	 2.0264226658	 0.7376292918	 0.113824
H	 0.7026982732	-0.4313422977	-0.4336884629	 0.109603
H	 0.407473204	-0.1668165748	 1.2823679021	 0.107209
H	-2.0981048325	-0.2178156173	 0.834724829	 0.093733
H	-2.8001148952	-0.8489570788	-1.2943713953	 0.242908
H	-2.4324994806	-2.5559765496	 0.2950088831	 0.103762
H	 0.2945874754	-2.6187452551	-1.1892481843	 0.08556
