17
gdb 28444	3.09931	1.31324	0.92775	1.4675	79.9	-0.2049	0.011	0.2159	1216.2216	0.136306	-421.904004	-421.895669	-421.894725	-421.936427	32.469	
C	-0.0219760385	 1.5186509746	 0.0643289802	-0.5386
C	 0.0161004433	 0.0115377401	 0.0136076664	 0.167535
C	-0.0519133071	-0.6910758222	-1.1912103326	-0.165227
C	-0.0176579255	-2.0780067855	-1.2479730947	-0.212955
C	 0.0886630873	-2.8012471613	-0.0592555958	 0.410256
O	 0.120022052	-4.161821081	-0.1464149289	-0.445343
C	 0.1587418223	-2.1338579027	 1.160822275	-0.359434
C	 0.1224474356	-0.7411671749	 1.1924745182	 0.325492
O	 0.1955302803	-0.1563937905	 2.423619321	-0.441766
H	 0.8855988847	 1.9456885104	 0.5137442607	 0.127319
H	-0.1045348261	 1.9369266775	-0.9416677917	 0.134144
H	-0.8794488215	 1.8969585415	 0.63847394	 0.127395
H	-0.1345991594	-0.1275475297	-2.1161927687	 0.089935
H	-0.0712547911	-2.6102866564	-2.1896477007	 0.098559
H	 0.1946069289	-4.5308441175	 0.7395141882	 0.296389
H	 0.2417734947	-2.6746798442	 2.0986755329	 0.08912
H	 0.1613662503	 0.7996929218	 2.3213485705	 0.297181
