19
gdb 11334	5.75599	1.21808	1.05014	2.7494	75.13	-0.2392	0.0367	0.2759	1164.3462	0.165627	-365.089916	-365.081318	-365.080374	-365.123777	30.733	
C	 0.0860450259	 1.4500399324	-0.04764957	-0.331696
N	 0.1839633706	-0.0009695999	-0.0682323472	-0.32779
C	 0.5407657751	-0.6162638851	 0.9698331429	 0.432517
C	 0.7026376822	-2.1148478186	 1.0999479277	-0.323246
C	 0.6151608016	-2.3460027708	 2.6167901779	 0.011417
C	 1.3204331817	-3.5932043499	 3.1405379294	-0.412818
C	 1.1997655715	-1.0237061582	 3.1391219389	-0.085322
O	 0.8395968493	-0.025458996	 2.1762923801	-0.248808
H	 0.8973008875	 1.8771429009	-0.6502341964	 0.121892
H	-0.8527589305	 1.748938258	-0.5262130626	 0.119385
H	 0.1314913883	 1.8926530534	 0.9537643257	 0.12054
H	-0.0442393726	-2.64690366	 0.5102527005	 0.131484
H	 1.6929446392	-2.4053252944	 0.7244462527	 0.120781
H	-0.4439367244	-2.3823053034	 2.9010744973	 0.089097
H	 2.3801357277	-3.5927822308	 2.8609974816	 0.119178
H	 1.2614252882	-3.6561162618	 4.2324650113	 0.119176
H	 0.8679572806	-4.502038879	 2.7322405763	 0.124975
H	 0.8022391093	-0.7171147026	 4.1102217519	 0.116199
H	 2.2955874287	-1.0758336342	 3.2116807618	 0.103041
