19
gdb 22096	2.5697	1.0135	0.84882	0.4087	84.05	-0.2142	-0.034	0.1801	1434.6614	0.15553	-419.112204	-419.10169	-419.100746	-419.148322	37.598	
C	 0.7654502802	 0.3519008682	-0.4599286387	-0.318252
N	-0.3691630308	-0.2684502112	 0.2075193692	-0.047294
C	-0.1033429495	-0.496284396	 1.6179768939	-0.312682
C	-1.6103010065	 0.4651546282	-0.002588813	-0.240575
C	-2.102659523	 0.3559748898	-1.4300120658	 0.150962
N	-2.2103255319	 1.4577004954	-2.0868032521	-0.154966
O	-2.6920453226	 1.2716293943	-3.3735795317	-0.381223
C	-2.4268683608	-0.9299149804	-1.948188889	 0.392499
C	-2.7120370946	-2.0265041795	-2.3541114918	-0.48518
H	 1.644166433	-0.2929913026	-0.3624808946	 0.117255
H	 0.5528262777	 0.4800007091	-1.5240544877	 0.13122
H	 1.0203673018	 1.3452551741	-0.0427571916	 0.09095
H	 0.0601943871	 0.4372736471	 2.1907411292	 0.091286
H	-0.9413636375	-1.0320373892	 2.074687319	 0.118514
H	 0.7932786612	-1.1146518368	 1.7260313849	 0.118966
H	-2.3709954283	 0.0294412983	 0.65574015	 0.113154
H	-1.5308038603	 1.5392796929	 0.2434585745	 0.099397
H	-2.7132353241	 2.1715442344	-3.718233581	 0.310638
H	-2.9576702412	-2.9928157161	-2.7202230337	 0.205331
